
OS:Version,
  {40c37c69-aada-47a4-ae2e-68294d1b4545}, !- Handle
  3.9.0;                                  !- Version Identifier

OS:Space,
  {1b6320c5-9a81-443f-b79e-e479db942077}, !- Handle
  Main Space,                             !- Name
  ,                                       !- Space Type Name
  ,                                       !- Default Construction Set Name
  ,                                       !- Default Schedule Set Name
  ,                                       !- Direction of Relative North {deg}
  ,                                       !- X Origin {m}
  ,                                       !- Y Origin {m}
  ,                                       !- Z Origin {m}
  ,                                       !- Building Story Name
  {b9c2482c-f859-4568-8fb0-a2678a601ffd}; !- Thermal Zone Name

OS:Construction,
  {4102692b-85f7-4b0e-b4c1-fd74e831a50a}, !- Handle
  clear_6mm,                              !- Name
  ,                                       !- Surface Rendering Name
  {6386faac-85a8-4fd1-9c2e-4d8cad0035f0}; !- Layer 1

OS:WindowMaterial:Glazing,
  {6386faac-85a8-4fd1-9c2e-4d8cad0035f0}, !- Handle
  clear_6mm,                              !- Name
  SpectralAverage,                        !- Optical Data Type
  ,                                       !- Window Glass Spectral Data Set Name
  0.006,                                  !- Thickness {m}
  0.775,                                  !- Solar Transmittance at Normal Incidence
  0.071,                                  !- Front Side Solar Reflectance at Normal Incidence
  0.071,                                  !- Back Side Solar Reflectance at Normal Incidence
  0.881,                                  !- Visible Transmittance at Normal Incidence
  0.08,                                   !- Front Side Visible Reflectance at Normal Incidence
  0.08,                                   !- Back Side Visible Reflectance at Normal Incidence
  0,                                      !- Infrared Transmittance at Normal Incidence
  0.84,                                   !- Front Side Infrared Hemispherical Emissivity
  0.84,                                   !- Back Side Infrared Hemispherical Emissivity
  0.9;                                    !- Conductivity {W/m-K}

OS:Construction,
  {392f28c2-ed82-48f1-af45-38ba1c69290b}, !- Handle
  M16_300mm_heavyweight_concrete,         !- Name
  ,                                       !- Surface Rendering Name
  {301b74e2-968d-4a57-acce-9edc8150084e}; !- Layer 1

OS:Material,
  {301b74e2-968d-4a57-acce-9edc8150084e}, !- Handle
  M16_300mm_heavyweight_concrete,         !- Name
  MediumRough,                            !- Roughness
  0.3048,                                 !- Thickness {m}
  1.95,                                   !- Conductivity {W/m-K}
  2240,                                   !- Density {kg/m3}
  900,                                    !- Specific Heat {J/kg-K}
  0.9,                                    !- Thermal Absorptance
  0.7,                                    !- Solar Absorptance
  0.7;                                    !- Visible Absorptance

OS:Construction,
  {68b46011-f669-4a53-8798-81764c12c3cc}, !- Handle
  low_iron_3mm,                           !- Name
  ,                                       !- Surface Rendering Name
  {0aa5f7c4-5699-44d6-bf4f-5215efb030c6}; !- Layer 1

OS:WindowMaterial:Glazing,
  {0aa5f7c4-5699-44d6-bf4f-5215efb030c6}, !- Handle
  low_iron_3mm,                           !- Name
  SpectralAverage,                        !- Optical Data Type
  ,                                       !- Window Glass Spectral Data Set Name
  0.003,                                  !- Thickness {m}
  0.899,                                  !- Solar Transmittance at Normal Incidence
  0.079,                                  !- Front Side Solar Reflectance at Normal Incidence
  0.079,                                  !- Back Side Solar Reflectance at Normal Incidence
  0.913,                                  !- Visible Transmittance at Normal Incidence
  0.082,                                  !- Front Side Visible Reflectance at Normal Incidence
  0.082,                                  !- Back Side Visible Reflectance at Normal Incidence
  0,                                      !- Infrared Transmittance at Normal Incidence
  0.84,                                   !- Front Side Infrared Hemispherical Emissivity
  0.84,                                   !- Back Side Infrared Hemispherical Emissivity
  0.9;                                    !- Conductivity {W/m-K}

OS:Construction,
  {a2763afa-5b85-43c4-8023-79d63a2b955f}, !- Handle
  generic_window_frame,                   !- Name
  ,                                       !- Surface Rendering Name
  {2dc694eb-a141-41da-af3b-a2a9eda53bfb}; !- Layer 1

OS:Material,
  {2dc694eb-a141-41da-af3b-a2a9eda53bfb}, !- Handle
  generic_window_frame,                   !- Name
  MediumSmooth,                           !- Roughness
  0.1,                                    !- Thickness {m}
  0.17,                                   !- Conductivity {W/m-K}
  700,                                    !- Density {kg/m3}
  1000,                                   !- Specific Heat {J/kg-K}
  0.9,                                    !- Thermal Absorptance
  0.7,                                    !- Solar Absorptance
  0.7;                                    !- Visible Absorptance

OS:Surface,
  {d98b061d-eacb-4ba3-812b-f13b9a889bdb}, !- Handle
  surface_0_generic_window_frame,         !- Name
  Wall,                                   !- Surface Type
  {a2763afa-5b85-43c4-8023-79d63a2b955f}, !- Construction Name
  {1b6320c5-9a81-443f-b79e-e479db942077}, !- Space Name
  Outdoors,                               !- Outside Boundary Condition
  ,                                       !- Outside Boundary Condition Object
  SunExposed,                             !- Sun Exposure
  WindExposed,                            !- Wind Exposure
  ,                                       !- View Factor to Ground
  ,                                       !- Number of Vertices
  -24.1341017613722, -21.1285778499505, 4.65911938477245, !- X,Y,Z Vertex 1 {m}
  -26.6606349945569, 0.731673026097611, 6.01049844820588, !- X,Y,Z Vertex 2 {m}
  -24.1267305339361, -21.0143882499918, 2.37211170289694; !- X,Y,Z Vertex 3 {m}

OS:SubSurface,
  {6408875e-fd7f-4f31-855b-8d0e01c595e7}, !- Handle
  subsurface_0_low_iron_3mm,              !- Name
  FixedWindow,                            !- Sub Surface Type
  {68b46011-f669-4a53-8798-81764c12c3cc}, !- Construction Name
  {d98b061d-eacb-4ba3-812b-f13b9a889bdb}, !- Surface Name
  ,                                       !- Outside Boundary Condition Object
  ,                                       !- View Factor to Ground
  ,                                       !- Frame and Divider Name
  ,                                       !- Multiplier
  ,                                       !- Number of Vertices
  -24.1352396894256, -21.1186517982642, 4.65869675294089, !- X,Y,Z Vertex 1 {m}
  -26.6594896230702, 0.721803242177376, 6.00936907248218, !- X,Y,Z Vertex 2 {m}
  -24.1278563748373, -21.0048048561013, 2.37473678266822; !- X,Y,Z Vertex 3 {m}

OS:Surface,
  {67b28a94-7143-46d0-93f5-c3a870be32cd}, !- Handle
  surface_1_generic_window_frame,         !- Name
  Wall,                                   !- Surface Type
  {a2763afa-5b85-43c4-8023-79d63a2b955f}, !- Construction Name
  {1b6320c5-9a81-443f-b79e-e479db942077}, !- Space Name
  Outdoors,                               !- Outside Boundary Condition
  ,                                       !- Outside Boundary Condition Object
  SunExposed,                             !- Sun Exposure
  WindExposed,                            !- Wind Exposure
  ,                                       !- View Factor to Ground
  ,                                       !- Number of Vertices
  -26.6606349945569, 0.731673026097611, 6.01049844820588, !- X,Y,Z Vertex 1 {m}
  -29.2151270266843, 21.7626296278411, 6.87371072431175, !- X,Y,Z Vertex 2 {m}
  -27.9595290989181, 2.52284236721774, 3.25742858412357; !- X,Y,Z Vertex 3 {m}

OS:SubSurface,
  {3b99bc58-d244-4830-a91c-ab24a234b9a3}, !- Handle
  subsurface_1_low_iron_3mm,              !- Name
  FixedWindow,                            !- Sub Surface Type
  {68b46011-f669-4a53-8798-81764c12c3cc}, !- Construction Name
  {67b28a94-7143-46d0-93f5-c3a870be32cd}, !- Surface Name
  ,                                       !- Outside Boundary Condition Object
  ,                                       !- View Factor to Ground
  ,                                       !- Frame and Divider Name
  ,                                       !- Multiplier
  ,                                       !- Number of Vertices
  -26.6622943505557, 0.741500754294478, 6.00968463240485, !- X,Y,Z Vertex 1 {m}
  -29.2141908373238, 21.7527345748788, 6.87261005344644, !- X,Y,Z Vertex 2 {m}
  -27.9595057898775, 2.53223604987908, 3.26085760479229; !- X,Y,Z Vertex 3 {m}

OS:Surface,
  {9c18bd2d-c76b-4410-970b-fef426494780}, !- Handle
  surface_2_generic_window_frame,         !- Name
  Wall,                                   !- Surface Type
  {a2763afa-5b85-43c4-8023-79d63a2b955f}, !- Construction Name
  {1b6320c5-9a81-443f-b79e-e479db942077}, !- Space Name
  Outdoors,                               !- Outside Boundary Condition
  ,                                       !- Outside Boundary Condition Object
  SunExposed,                             !- Sun Exposure
  WindExposed,                            !- Wind Exposure
  ,                                       !- View Factor to Ground
  ,                                       !- Number of Vertices
  -24.1267305339361, -21.0143882499918, 2.37211170289694, !- X,Y,Z Vertex 1 {m}
  -27.9595290989181, 2.52284236721774, 3.25742858412357, !- X,Y,Z Vertex 2 {m}
  -24.1195896474348, -21.030293345494, 0; !- X,Y,Z Vertex 3 {m}

OS:SubSurface,
  {7a8832c4-8112-476b-898a-2290134c34ef}, !- Handle
  subsurface_2_low_iron_3mm,              !- Name
  FixedWindow,                            !- Sub Surface Type
  {68b46011-f669-4a53-8798-81764c12c3cc}, !- Construction Name
  {9c18bd2d-c76b-4410-970b-fef426494780}, !- Surface Name
  ,                                       !- Outside Boundary Condition Object
  ,                                       !- View Factor to Ground
  ,                                       !- Frame and Divider Name
  ,                                       !- Multiplier
  ,                                       !- Number of Vertices
  -24.128332786512, -21.0045371060649, 2.37148900713243, !- X,Y,Z Vertex 1 {m}
  -27.9579269694697, 2.513009519743, 3.25656354552943, !- X,Y,Z Vertex 2 {m}
  -24.1211576114788, -21.0206872532652, 0.00229444565192962; !- X,Y,Z Vertex 3 {m}

OS:Surface,
  {3e8d631a-5567-42e7-932f-9aa8c8334eca}, !- Handle
  surface_3_generic_window_frame,         !- Name
  Wall,                                   !- Surface Type
  {a2763afa-5b85-43c4-8023-79d63a2b955f}, !- Construction Name
  {1b6320c5-9a81-443f-b79e-e479db942077}, !- Space Name
  Outdoors,                               !- Outside Boundary Condition
  ,                                       !- Outside Boundary Condition Object
  SunExposed,                             !- Sun Exposure
  WindExposed,                            !- Wind Exposure
  ,                                       !- View Factor to Ground
  ,                                       !- Number of Vertices
  -26.6606349945569, 0.731673026097611, 6.01049844820588, !- X,Y,Z Vertex 1 {m}
  -27.9595290989181, 2.52284236721774, 3.25742858412357, !- X,Y,Z Vertex 2 {m}
  -24.1267305339361, -21.0143882499918, 2.37211170289694; !- X,Y,Z Vertex 3 {m}

OS:SubSurface,
  {8fec7a88-c4ad-4b1a-8a97-ae39137a9345}, !- Handle
  subsurface_3_low_iron_3mm,              !- Name
  FixedWindow,                            !- Sub Surface Type
  {68b46011-f669-4a53-8798-81764c12c3cc}, !- Construction Name
  {3e8d631a-5567-42e7-932f-9aa8c8334eca}, !- Surface Name
  ,                                       !- Outside Boundary Condition Object
  ,                                       !- View Factor to Ground
  ,                                       !- Frame and Divider Name
  ,                                       !- Multiplier
  ,                                       !- Number of Vertices
  -26.6600466099195, 0.722166100267239, 6.00745342525454, !- X,Y,Z Vertex 1 {m}
  -27.9575485483133, 2.51306700047465, 3.25814943385837, !- X,Y,Z Vertex 2 {m}
  -24.1281160491639, -21.0045337475545, 2.37309614653055; !- X,Y,Z Vertex 3 {m}

OS:Surface,
  {c04ec0ab-01d2-412c-809f-2be6b4651ecb}, !- Handle
  surface_4_generic_window_frame,         !- Name
  Wall,                                   !- Surface Type
  {a2763afa-5b85-43c4-8023-79d63a2b955f}, !- Construction Name
  {1b6320c5-9a81-443f-b79e-e479db942077}, !- Space Name
  Outdoors,                               !- Outside Boundary Condition
  ,                                       !- Outside Boundary Condition Object
  SunExposed,                             !- Sun Exposure
  WindExposed,                            !- Wind Exposure
  ,                                       !- View Factor to Ground
  ,                                       !- Number of Vertices
  20.2764377331322, -25.3569793708204, 0, !- X,Y,Z Vertex 1 {m}
  -1.85357882248968, -23.2679316877222, 2.32817072041939, !- X,Y,Z Vertex 2 {m}
  -1.90138510984425, -23.1789252387004, 0; !- X,Y,Z Vertex 3 {m}

OS:SubSurface,
  {072f1255-c129-4e78-8119-084ee2636a52}, !- Handle
  subsurface_4_low_iron_3mm,              !- Name
  FixedWindow,                            !- Sub Surface Type
  {68b46011-f669-4a53-8798-81764c12c3cc}, !- Construction Name
  {c04ec0ab-01d2-412c-809f-2be6b4651ecb}, !- Surface Name
  ,                                       !- Outside Boundary Condition Object
  ,                                       !- View Factor to Ground
  ,                                       !- Frame and Divider Name
  ,                                       !- Multiplier
  ,                                       !- Number of Vertices
  20.2664973743952, -25.3560220566433, 0.000522319582180056, !- X,Y,Z Vertex 1 {m}
  -1.84383219200522, -23.2688144645197, 2.32611550769919, !- X,Y,Z Vertex 2 {m}
  -1.89149031274203, -23.1799345286663, 0.00103649605429748; !- X,Y,Z Vertex 3 {m}

OS:Surface,
  {5bac843c-0c87-4151-ab27-db6adf1b044a}, !- Handle
  surface_5_generic_window_frame,         !- Name
  Wall,                                   !- Surface Type
  {a2763afa-5b85-43c4-8023-79d63a2b955f}, !- Construction Name
  {1b6320c5-9a81-443f-b79e-e479db942077}, !- Space Name
  Outdoors,                               !- Outside Boundary Condition
  ,                                       !- Outside Boundary Condition Object
  SunExposed,                             !- Sun Exposure
  WindExposed,                            !- Wind Exposure
  ,                                       !- View Factor to Ground
  ,                                       !- Number of Vertices
  -1.85357882248968, -23.2679316877222, 2.32817072041939, !- X,Y,Z Vertex 1 {m}
  -24.1341017613722, -21.1285778499505, 4.65911938477245, !- X,Y,Z Vertex 2 {m}
  -24.1267305339361, -21.0143882499918, 2.37211170289694; !- X,Y,Z Vertex 3 {m}

OS:SubSurface,
  {de299c48-c0cd-46ca-88da-4b70594faa2e}, !- Handle
  subsurface_5_low_iron_3mm,              !- Name
  FixedWindow,                            !- Sub Surface Type
  {68b46011-f669-4a53-8798-81764c12c3cc}, !- Construction Name
  {5bac843c-0c87-4151-ab27-db6adf1b044a}, !- Surface Name
  ,                                       !- Outside Boundary Condition Object
  ,                                       !- View Factor to Ground
  ,                                       !- Frame and Divider Name
  ,                                       !- Multiplier
  ,                                       !- Number of Vertices
  -1.86351659392059, -23.2669518446591, 2.32870044351561, !- X,Y,Z Vertex 1 {m}
  -24.1243482689274, -21.1294640899849, 4.65709850285345, !- X,Y,Z Vertex 2 {m}
  -24.1168361215439, -21.0154404173356, 2.37310847132206; !- X,Y,Z Vertex 3 {m}

OS:Surface,
  {aee88326-1384-4efe-b5fb-64737e5e6540}, !- Handle
  surface_6_generic_window_frame,         !- Name
  Wall,                                   !- Surface Type
  {a2763afa-5b85-43c4-8023-79d63a2b955f}, !- Construction Name
  {1b6320c5-9a81-443f-b79e-e479db942077}, !- Space Name
  Outdoors,                               !- Outside Boundary Condition
  ,                                       !- Outside Boundary Condition Object
  SunExposed,                             !- Sun Exposure
  WindExposed,                            !- Wind Exposure
  ,                                       !- View Factor to Ground
  ,                                       !- Number of Vertices
  -1.90138510984425, -23.1789252387004, 0, !- X,Y,Z Vertex 1 {m}
  -24.1267305339361, -21.0143882499918, 2.37211170289694, !- X,Y,Z Vertex 2 {m}
  -24.1195896474348, -21.030293345494, 0; !- X,Y,Z Vertex 3 {m}

OS:SubSurface,
  {878194d6-f62f-44f5-b32a-9d9ea9f0a8b6}, !- Handle
  subsurface_6_low_iron_3mm,              !- Name
  FixedWindow,                            !- Sub Surface Type
  {68b46011-f669-4a53-8798-81764c12c3cc}, !- Construction Name
  {aee88326-1384-4efe-b5fb-64737e5e6540}, !- Surface Name
  ,                                       !- Outside Boundary Condition Object
  ,                                       !- View Factor to Ground
  ,                                       !- Frame and Divider Name
  ,                                       !- Multiplier
  ,                                       !- Number of Vertices
  -1.91132433292736, -23.1779606544637, 0.000530491992954691, !- X,Y,Z Vertex 1 {m}
  -24.1169953993251, -21.0153430193731, 2.37003430800575, !- X,Y,Z Vertex 2 {m}
  -24.109691208855, -21.0312438026871, 0.00105713991749733; !- X,Y,Z Vertex 3 {m}

OS:Surface,
  {cdf3486a-1dbd-4eaf-9375-690a7abd80d2}, !- Handle
  surface_7_generic_window_frame,         !- Name
  Wall,                                   !- Surface Type
  {a2763afa-5b85-43c4-8023-79d63a2b955f}, !- Construction Name
  {1b6320c5-9a81-443f-b79e-e479db942077}, !- Space Name
  Outdoors,                               !- Outside Boundary Condition
  ,                                       !- Outside Boundary Condition Object
  SunExposed,                             !- Sun Exposure
  WindExposed,                            !- Wind Exposure
  ,                                       !- View Factor to Ground
  ,                                       !- Number of Vertices
  -1.85357882248968, -23.2679316877222, 2.32817072041939, !- X,Y,Z Vertex 1 {m}
  -24.1267305339361, -21.0143882499918, 2.37211170289694, !- X,Y,Z Vertex 2 {m}
  -1.90138510984425, -23.1789252387004, 0; !- X,Y,Z Vertex 3 {m}

OS:SubSurface,
  {81bed073-68b6-4d6f-ab17-6ac490ce7222}, !- Handle
  subsurface_7_low_iron_3mm,              !- Name
  FixedWindow,                            !- Sub Surface Type
  {68b46011-f669-4a53-8798-81764c12c3cc}, !- Construction Name
  {cdf3486a-1dbd-4eaf-9375-690a7abd80d2}, !- Surface Name
  ,                                       !- Outside Boundary Condition Object
  ,                                       !- View Factor to Ground
  ,                                       !- Frame and Divider Name
  ,                                       !- Multiplier
  ,                                       !- Number of Vertices
  -1.86347308955583, -23.2668932997553, 2.32715818417122, !- X,Y,Z Vertex 1 {m}
  -24.1167939539056, -21.0153748138661, 2.37157219476944, !- X,Y,Z Vertex 2 {m}
  -1.91112706954223, -23.1780135173978, 0.0020646998593829; !- X,Y,Z Vertex 3 {m}

OS:Surface,
  {aacb191a-5c54-4cd6-a089-6ec4731cc9b7}, !- Handle
  surface_8_generic_window_frame,         !- Name
  Wall,                                   !- Surface Type
  {a2763afa-5b85-43c4-8023-79d63a2b955f}, !- Construction Name
  {1b6320c5-9a81-443f-b79e-e479db942077}, !- Space Name
  Outdoors,                               !- Outside Boundary Condition
  ,                                       !- Outside Boundary Condition Object
  SunExposed,                             !- Sun Exposure
  WindExposed,                            !- Wind Exposure
  ,                                       !- View Factor to Ground
  ,                                       !- Number of Vertices
  -24.1195896474348, -21.030293345494, 0, !- X,Y,Z Vertex 1 {m}
  -27.9595290989181, 2.52284236721774, 3.25742858412357, !- X,Y,Z Vertex 2 {m}
  -27.5404770534885, 1.26528638010729, 0; !- X,Y,Z Vertex 3 {m}

OS:SubSurface,
  {5e940e84-420d-45b6-aca5-6ce22ba9dba2}, !- Handle
  subsurface_8_clear_6mm,                 !- Name
  FixedWindow,                            !- Sub Surface Type
  {4102692b-85f7-4b0e-b4c1-fd74e831a50a}, !- Construction Name
  {aacb191a-5c54-4cd6-a089-6ec4731cc9b7}, !- Surface Name
  ,                                       !- Outside Boundary Condition Object
  ,                                       !- View Factor to Ground
  ,                                       !- Frame and Divider Name
  ,                                       !- Multiplier
  ,                                       !- Number of Vertices
  -24.121149966766, -21.0204406608879, 0.000700006884800312, !- X,Y,Z Vertex 1 {m}
  -27.9578912103595, 2.51330087175001, 3.25492315296124, !- X,Y,Z Vertex 2 {m}
  -27.5390808061384, 1.25550093841302, 0.00151513173858012; !- X,Y,Z Vertex 3 {m}

OS:Surface,
  {34d3a400-62e8-439a-9dbf-78424c9e158f}, !- Handle
  surface_9_generic_window_frame,         !- Name
  Wall,                                   !- Surface Type
  {a2763afa-5b85-43c4-8023-79d63a2b955f}, !- Construction Name
  {1b6320c5-9a81-443f-b79e-e479db942077}, !- Space Name
  Outdoors,                               !- Outside Boundary Condition
  ,                                       !- Outside Boundary Condition Object
  SunExposed,                             !- Sun Exposure
  WindExposed,                            !- Wind Exposure
  ,                                       !- View Factor to Ground
  ,                                       !- Number of Vertices
  -27.9595290989181, 2.52284236721774, 3.25742858412357, !- X,Y,Z Vertex 1 {m}
  -29.2151270266843, 21.7626296278411, 6.87371072431175, !- X,Y,Z Vertex 2 {m}
  -30.0771036584381, 23.1100146865393, 3.73941275673188; !- X,Y,Z Vertex 3 {m}

OS:SubSurface,
  {703927c6-e3c1-461f-b88f-244b025a7033}, !- Handle
  subsurface_9_clear_6mm,                 !- Name
  FixedWindow,                            !- Sub Surface Type
  {4102692b-85f7-4b0e-b4c1-fd74e831a50a}, !- Construction Name
  {34d3a400-62e8-439a-9dbf-78424c9e158f}, !- Surface Name
  ,                                       !- Outside Boundary Condition Object
  ,                                       !- View Factor to Ground
  ,                                       !- Frame and Divider Name
  ,                                       !- Multiplier
  ,                                       !- Number of Vertices
  -27.9603686328408, 2.53275472234705, 3.25844858342895, !- X,Y,Z Vertex 1 {m}
  -29.2149212391101, 21.753275372664, 6.87018148054623, !- X,Y,Z Vertex 2 {m}
  -30.0757671972219, 23.100176062079, 3.74060243742294; !- X,Y,Z Vertex 3 {m}

OS:Surface,
  {23a16676-4932-4ae7-8fc1-8f1c2af341d8}, !- Handle
  surface_10_generic_window_frame,        !- Name
  Wall,                                   !- Surface Type
  {a2763afa-5b85-43c4-8023-79d63a2b955f}, !- Construction Name
  {1b6320c5-9a81-443f-b79e-e479db942077}, !- Space Name
  Outdoors,                               !- Outside Boundary Condition
  ,                                       !- Outside Boundary Condition Object
  SunExposed,                             !- Sun Exposure
  WindExposed,                            !- Wind Exposure
  ,                                       !- View Factor to Ground
  ,                                       !- Number of Vertices
  -27.5404770534885, 1.26528638010729, 0, !- X,Y,Z Vertex 1 {m}
  -30.0771036584381, 23.1100146865393, 3.73941275673188, !- X,Y,Z Vertex 2 {m}
  -30.8750986703785, 23.4495637762045, 0; !- X,Y,Z Vertex 3 {m}

OS:SubSurface,
  {7321db2c-ea02-482a-aa49-4af4d4ea377d}, !- Handle
  subsurface_10_clear_6mm,                !- Name
  FixedWindow,                            !- Sub Surface Type
  {4102692b-85f7-4b0e-b4c1-fd74e831a50a}, !- Construction Name
  {23a16676-4932-4ae7-8fc1-8f1c2af341d8}, !- Surface Name
  ,                                       !- Outside Boundary Condition Object
  ,                                       !- View Factor to Ground
  ,                                       !- Frame and Divider Name
  ,                                       !- Multiplier
  ,                                       !- Number of Vertices
  -27.5417941894949, 1.2751636986173, 0.000838887234659768, !- X,Y,Z Vertex 1 {m}
  -30.0763422630805, 23.1005969676354, 3.73613757005675, !- X,Y,Z Vertex 2 {m}
  -30.8733176091494, 23.4398565331457, 0.001611599545478; !- X,Y,Z Vertex 3 {m}

OS:Surface,
  {d9166360-52da-4eb4-b90b-a174cb8b8a55}, !- Handle
  surface_11_generic_window_frame,        !- Name
  Wall,                                   !- Surface Type
  {a2763afa-5b85-43c4-8023-79d63a2b955f}, !- Construction Name
  {1b6320c5-9a81-443f-b79e-e479db942077}, !- Space Name
  Outdoors,                               !- Outside Boundary Condition
  ,                                       !- Outside Boundary Condition Object
  SunExposed,                             !- Sun Exposure
  WindExposed,                            !- Wind Exposure
  ,                                       !- View Factor to Ground
  ,                                       !- Number of Vertices
  -27.9595290989181, 2.52284236721774, 3.25742858412357, !- X,Y,Z Vertex 1 {m}
  -30.0771036584381, 23.1100146865393, 3.73941275673188, !- X,Y,Z Vertex 2 {m}
  -27.5404770534885, 1.26528638010729, 0; !- X,Y,Z Vertex 3 {m}

OS:SubSurface,
  {2a589c65-20ca-474d-a14c-5c24f97a54dd}, !- Handle
  subsurface_11_clear_6mm,                !- Name
  FixedWindow,                            !- Sub Surface Type
  {4102692b-85f7-4b0e-b4c1-fd74e831a50a}, !- Construction Name
  {d9166360-52da-4eb4-b90b-a174cb8b8a55}, !- Surface Name
  ,                                       !- Outside Boundary Condition Object
  ,                                       !- View Factor to Ground
  ,                                       !- Frame and Divider Name
  ,                                       !- Multiplier
  ,                                       !- Number of Vertices
  -27.9603956219602, 2.53270361886928, 3.25601265556522, !- X,Y,Z Vertex 1 {m}
  -30.0760186268565, 23.1001225588418, 3.73842862458435, !- X,Y,Z Vertex 2 {m}
  -27.5416924384278, 1.27478611661989, 0.0028771245437903; !- X,Y,Z Vertex 3 {m}

OS:Surface,
  {616190e0-dcc2-43a5-b967-413db2870674}, !- Handle
  surface_12_M16_300mm_heavyweight_concrete, !- Name
  Floor,                                  !- Surface Type
  {392f28c2-ed82-48f1-af45-38ba1c69290b}, !- Construction Name
  {1b6320c5-9a81-443f-b79e-e479db942077}, !- Space Name
  Ground,                                 !- Outside Boundary Condition
  ,                                       !- Outside Boundary Condition Object
  NoSun,                                  !- Sun Exposure
  NoWind,                                 !- Wind Exposure
  ,                                       !- View Factor to Ground
  ,                                       !- Number of Vertices
  -30.8750986703785, 23.4495637762045, 0, !- X,Y,Z Vertex 1 {m}
  -5.18383935176007, -0.975666588832063, 0, !- X,Y,Z Vertex 2 {m}
  -27.5404770534885, 1.26528638010729, 0; !- X,Y,Z Vertex 3 {m}

OS:Surface,
  {49e49260-a607-4015-8de0-b8b193572544}, !- Handle
  surface_13_M16_300mm_heavyweight_concrete, !- Name
  Floor,                                  !- Surface Type
  {392f28c2-ed82-48f1-af45-38ba1c69290b}, !- Construction Name
  {1b6320c5-9a81-443f-b79e-e479db942077}, !- Space Name
  Ground,                                 !- Outside Boundary Condition
  ,                                       !- Outside Boundary Condition Object
  NoSun,                                  !- Sun Exposure
  NoWind,                                 !- Wind Exposure
  ,                                       !- View Factor to Ground
  ,                                       !- Number of Vertices
  -5.18383935176007, -0.975666588832063, 0, !- X,Y,Z Vertex 1 {m}
  20.2764377331322, -25.3569793708204, 0, !- X,Y,Z Vertex 2 {m}
  -1.90138510984425, -23.1789252387004, 0; !- X,Y,Z Vertex 3 {m}

OS:Surface,
  {b65ada9e-167f-4095-9ae2-283ef5bdd0c1}, !- Handle
  surface_14_M16_300mm_heavyweight_concrete, !- Name
  Floor,                                  !- Surface Type
  {392f28c2-ed82-48f1-af45-38ba1c69290b}, !- Construction Name
  {1b6320c5-9a81-443f-b79e-e479db942077}, !- Space Name
  Ground,                                 !- Outside Boundary Condition
  ,                                       !- Outside Boundary Condition Object
  NoSun,                                  !- Sun Exposure
  NoWind,                                 !- Wind Exposure
  ,                                       !- View Factor to Ground
  ,                                       !- Number of Vertices
  -27.5404770534885, 1.26528638010729, 0, !- X,Y,Z Vertex 1 {m}
  -1.90138510984425, -23.1789252387004, 0, !- X,Y,Z Vertex 2 {m}
  -24.1195896474348, -21.030293345494, 0; !- X,Y,Z Vertex 3 {m}

OS:Surface,
  {e3fb6a23-6f02-4eaa-964b-c531d8a6f6e8}, !- Handle
  surface_15_M16_300mm_heavyweight_concrete, !- Name
  Floor,                                  !- Surface Type
  {392f28c2-ed82-48f1-af45-38ba1c69290b}, !- Construction Name
  {1b6320c5-9a81-443f-b79e-e479db942077}, !- Space Name
  Ground,                                 !- Outside Boundary Condition