
OS:Version,
  {d8f853d7-5738-42a6-9b78-c381f8d13328}, !- Handle
  3.9.0;                                  !- Version Identifier

OS:Space,
  {294583ff-d6e7-4759-affb-383af8c62954}, !- Handle
  Main Space,                             !- Name
  ,                                       !- Space Type Name
  ,                                       !- Default Construction Set Name
  ,                                       !- Default Schedule Set Name
  ,                                       !- Direction of Relative North {deg}
  ,                                       !- X Origin {m}
  ,                                       !- Y Origin {m}
  ,                                       !- Z Origin {m}
  ,                                       !- Building Story Name
  {2b197898-1691-4899-aa83-ae83368af946}; !- Thermal Zone Name

OS:Construction,
  {30a7a3a5-72a1-4d52-ad14-58a436e2ceae}, !- Handle
  M08_200mm_lightweight_concrete_block_filled, !- Name
  ,                                       !- Surface Rendering Name
  {539c210f-199b-476e-b2db-9b6c93c9a630}; !- Layer 1

OS:Material,
  {539c210f-199b-476e-b2db-9b6c93c9a630}, !- Handle
  M08_200mm_lightweight_concrete_block_filled, !- Name
  MediumRough,                            !- Roughness
  0.2032,                                 !- Thickness {m}
  0.26,                                   !- Conductivity {W/m-K}
  464,                                    !- Density {kg/m3}
  880,                                    !- Specific Heat {J/kg-K}
  0.9,                                    !- Thermal Absorptance
  0.7,                                    !- Solar Absorptance
  0.7;                                    !- Visible Absorptance

OS:Construction,
  {46afbc78-db78-4b49-b4d2-3d774db09462}, !- Handle
  generic_window_frame,                   !- Name
  ,                                       !- Surface Rendering Name
  {74df250c-1f08-428a-b5fa-fa336c2312ed}; !- Layer 1

OS:Material,
  {74df250c-1f08-428a-b5fa-fa336c2312ed}, !- Handle
  generic_window_frame,                   !- Name
  MediumSmooth,                           !- Roughness
  0.1,                                    !- Thickness {m}
  0.17,                                   !- Conductivity {W/m-K}
  700,                                    !- Density {kg/m3}
  1000,                                   !- Specific Heat {J/kg-K}
  0.9,                                    !- Thermal Absorptance
  0.7,                                    !- Solar Absorptance
  0.7;                                    !- Visible Absorptance

OS:Construction,
  {050897a5-a724-45ad-a8ed-340ed21517f9}, !- Handle
  clear_6mm,                              !- Name
  ,                                       !- Surface Rendering Name
  {83b0a064-2237-4381-9947-9dda3c704588}; !- Layer 1

OS:WindowMaterial:Glazing,
  {83b0a064-2237-4381-9947-9dda3c704588}, !- Handle
  clear_6mm,                              !- Name
  SpectralAverage,                        !- Optical Data Type
  ,                                       !- Window Glass Spectral Data Set Name
  0.006,                                  !- Thickness {m}
  0.775,                                  !- Solar Transmittance at Normal Incidence
  0.071,                                  !- Front Side Solar Reflectance at Normal Incidence
  0.071,                                  !- Back Side Solar Reflectance at Normal Incidence
  0.881,                                  !- Visible Transmittance at Normal Incidence
  0.08,                                   !- Front Side Visible Reflectance at Normal Incidence
  0.08,                                   !- Back Side Visible Reflectance at Normal Incidence
  0,                                      !- Infrared Transmittance at Normal Incidence
  0.84,                                   !- Front Side Infrared Hemispherical Emissivity
  0.84,                                   !- Back Side Infrared Hemispherical Emissivity
  0.9;                                    !- Conductivity {W/m-K}

OS:Construction,
  {fda24fe6-c949-417f-9ea8-3610c8b719d1}, !- Handle
  low_iron_3mm,                           !- Name
  ,                                       !- Surface Rendering Name
  {e9b5a2fa-3a65-49df-a7de-aab5155bc179}; !- Layer 1

OS:WindowMaterial:Glazing,
  {e9b5a2fa-3a65-49df-a7de-aab5155bc179}, !- Handle
  low_iron_3mm,                           !- Name
  SpectralAverage,                        !- Optical Data Type
  ,                                       !- Window Glass Spectral Data Set Name
  0.003,                                  !- Thickness {m}
  0.899,                                  !- Solar Transmittance at Normal Incidence
  0.079,                                  !- Front Side Solar Reflectance at Normal Incidence
  0.079,                                  !- Back Side Solar Reflectance at Normal Incidence
  0.913,                                  !- Visible Transmittance at Normal Incidence
  0.082,                                  !- Front Side Visible Reflectance at Normal Incidence
  0.082,                                  !- Back Side Visible Reflectance at Normal Incidence
  0,                                      !- Infrared Transmittance at Normal Incidence
  0.84,                                   !- Front Side Infrared Hemispherical Emissivity
  0.84,                                   !- Back Side Infrared Hemispherical Emissivity
  0.9;                                    !- Conductivity {W/m-K}

OS:Construction,
  {86b66244-60ed-4041-aee5-5445bc350458}, !- Handle
  M16_300mm_heavyweight_concrete,         !- Name
  ,                                       !- Surface Rendering Name
  {9970e715-6257-4636-a6d2-c317797fed3b}; !- Layer 1

OS:Material,
  {9970e715-6257-4636-a6d2-c317797fed3b}, !- Handle
  M16_300mm_heavyweight_concrete,         !- Name
  MediumRough,                            !- Roughness
  0.3048,                                 !- Thickness {m}
  1.95,                                   !- Conductivity {W/m-K}
  2240,                                   !- Density {kg/m3}
  900,                                    !- Specific Heat {J/kg-K}
  0.9,                                    !- Thermal Absorptance
  0.7,                                    !- Solar Absorptance
  0.7;                                    !- Visible Absorptance

OS:Construction,
  {fd47cc4a-d5e8-4737-a85d-b194a7a30b56}, !- Handle
  I02_50_mm_insulation_board,             !- Name
  ,                                       !- Surface Rendering Name
  {1debb10b-0133-4b82-9758-f7052bdd3697}; !- Layer 1

OS:Material,
  {1debb10b-0133-4b82-9758-f7052bdd3697}, !- Handle
  I02_50_mm_insulation_board,             !- Name
  MediumRough,                            !- Roughness
  0.0508,                                 !- Thickness {m}
  0.03,                                   !- Conductivity {W/m-K}
  43,                                     !- Density {kg/m3}
  1210,                                   !- Specific Heat {J/kg-K}
  0.9,                                    !- Thermal Absorptance
  0.7,                                    !- Solar Absorptance
  0.7;                                    !- Visible Absorptance

OS:Surface,
  {f0254927-56a8-452a-a8d5-c62e4f856c16}, !- Handle
  surface_0_I02_50_mm_insulation_board,   !- Name
  Wall,                                   !- Surface Type
  {fd47cc4a-d5e8-4737-a85d-b194a7a30b56}, !- Construction Name
  {294583ff-d6e7-4759-affb-383af8c62954}, !- Space Name
  Outdoors,                               !- Outside Boundary Condition
  ,                                       !- Outside Boundary Condition Object
  SunExposed,                             !- Sun Exposure
  WindExposed,                            !- Wind Exposure
  ,                                       !- View Factor to Ground
  ,                                       !- Number of Vertices
  -19.3864114460418, -21.5265130975128, 3.9801024621119, !- X,Y,Z Vertex 1 {m}
  -20.186932093974, -4.35862605417002, 4.9839189854826, !- X,Y,Z Vertex 2 {m}
  -23.6755428894453, -24.8565845544444, 1.69686515514109; !- X,Y,Z Vertex 3 {m}

OS:Surface,
  {aa785829-1dfa-434e-8855-4f698e625360}, !- Handle
  surface_1_generic_window_frame,         !- Name
  Wall,                                   !- Surface Type
  {46afbc78-db78-4b49-b4d2-3d774db09462}, !- Construction Name
  {294583ff-d6e7-4759-affb-383af8c62954}, !- Space Name
  Outdoors,                               !- Outside Boundary Condition
  ,                                       !- Outside Boundary Condition Object
  SunExposed,                             !- Sun Exposure
  WindExposed,                            !- Wind Exposure
  ,                                       !- View Factor to Ground
  ,                                       !- Number of Vertices
  -20.186932093974, -4.35862605417002, 4.9839189854826, !- X,Y,Z Vertex 1 {m}
  -20.9154347267433, 13.928800828018, 7.02137310900816, !- X,Y,Z Vertex 2 {m}
  -23.7643343636057, -4.78839319937202, 3.03810767327085; !- X,Y,Z Vertex 3 {m}

OS:SubSurface,
  {d2cd3c0b-fbf4-4bd5-8ee9-e84890043b80}, !- Handle
  subsurface_1_clear_6mm,                 !- Name
  FixedWindow,                            !- Sub Surface Type
  {050897a5-a724-45ad-a8ed-340ed21517f9}, !- Construction Name
  {aa785829-1dfa-434e-8855-4f698e625360}, !- Surface Name
  ,                                       !- Outside Boundary Condition Object
  ,                                       !- View Factor to Ground
  ,                                       !- Frame and Divider Name
  ,                                       !- Multiplier
  ,                                       !- Number of Vertices
  -20.189276121943, -4.3489047865541, 4.98396887355904, !- X,Y,Z Vertex 1 {m}
  -20.9159993960864, 13.9189463644731, 7.01976976975072, !- X,Y,Z Vertex 2 {m}
  -23.7612813333159, -4.77929679318566, 3.04092448006976; !- X,Y,Z Vertex 3 {m}

OS:Surface,
  {e5efdb4d-f295-427a-aeb2-4053b035981a}, !- Handle
  surface_2_generic_window_frame,         !- Name
  Wall,                                   !- Surface Type
  {46afbc78-db78-4b49-b4d2-3d774db09462}, !- Construction Name
  {294583ff-d6e7-4759-affb-383af8c62954}, !- Space Name
  Outdoors,                               !- Outside Boundary Condition
  ,                                       !- Outside Boundary Condition Object
  SunExposed,                             !- Sun Exposure
  WindExposed,                            !- Wind Exposure
  ,                                       !- View Factor to Ground
  ,                                       !- Number of Vertices
  -23.6755428894453, -24.8565845544444, 1.69686515514109, !- X,Y,Z Vertex 1 {m}
  -23.7643343636057, -4.78839319937202, 3.03810767327085, !- X,Y,Z Vertex 2 {m}
  -27.1335869049169, -23.187680694562, 0; !- X,Y,Z Vertex 3 {m}

OS:SubSurface,
  {1cfbfd13-d05e-4cae-845e-1d1cdfd3c743}, !- Handle
  subsurface_2_clear_6mm,                 !- Name
  FixedWindow,                            !- Sub Surface Type
  {050897a5-a724-45ad-a8ed-340ed21517f9}, !- Construction Name
  {e5efdb4d-f295-427a-aeb2-4053b035981a}, !- Surface Name
  ,                                       !- Outside Boundary Condition Object
  ,                                       !- View Factor to Ground
  ,                                       !- Frame and Divider Name
  ,                                       !- Multiplier
  ,                                       !- Number of Vertices
  -23.6771530795393, -24.8467163619419, 1.69670370980511, !- X,Y,Z Vertex 1 {m}
  -23.76517865317, -4.79829354273652, 3.03698056351726, !- X,Y,Z Vertex 2 {m}
  -27.129932010534, -23.1787243258639, 0.00253479916246499; !- X,Y,Z Vertex 3 {m}

OS:Surface,
  {9dba1f59-e2ea-463e-8f67-0e9fe9f51d30}, !- Handle
  surface_3_I02_50_mm_insulation_board,   !- Name
  Wall,                                   !- Surface Type
  {fd47cc4a-d5e8-4737-a85d-b194a7a30b56}, !- Construction Name
  {294583ff-d6e7-4759-affb-383af8c62954}, !- Space Name
  Outdoors,                               !- Outside Boundary Condition
  ,                                       !- Outside Boundary Condition Object
  SunExposed,                             !- Sun Exposure
  WindExposed,                            !- Wind Exposure
  ,                                       !- View Factor to Ground
  ,                                       !- Number of Vertices
  -20.186932093974, -4.35862605417002, 4.9839189854826, !- X,Y,Z Vertex 1 {m}
  -23.7643343636057, -4.78839319937202, 3.03810767327085, !- X,Y,Z Vertex 2 {m}
  -23.6755428894453, -24.8565845544444, 1.69686515514109; !- X,Y,Z Vertex 3 {m}

OS:Surface,
  {a6ee61d5-8c74-4081-96cf-6a11a93c1a24}, !- Handle
  surface_4_generic_window_frame,         !- Name
  Wall,                                   !- Surface Type
  {46afbc78-db78-4b49-b4d2-3d774db09462}, !- Construction Name
  {294583ff-d6e7-4759-affb-383af8c62954}, !- Space Name
  Outdoors,                               !- Outside Boundary Condition
  ,                                       !- Outside Boundary Condition Object
  SunExposed,                             !- Sun Exposure
  WindExposed,                            !- Wind Exposure
  ,                                       !- View Factor to Ground
  ,                                       !- Number of Vertices
  21.6361592990283, -20.5384155621971, 0, !- X,Y,Z Vertex 1 {m}
  -0.0495913988543656, -22.3111132524972, 2.14232990456316, !- X,Y,Z Vertex 2 {m}
  -2.98653732059666, -21.5667325279516, 0; !- X,Y,Z Vertex 3 {m}

OS:SubSurface,
  {66ee7c3f-9ff4-4f31-a967-fb94f3eb835e}, !- Handle
  subsurface_4_clear_6mm,                 !- Name
  FixedWindow,                            !- Sub Surface Type
  {050897a5-a724-45ad-a8ed-340ed21517f9}, !- Construction Name
  {a6ee61d5-8c74-4081-96cf-6a11a93c1a24}, !- Surface Name
  ,                                       !- Outside Boundary Condition Object
  ,                                       !- View Factor to Ground
  ,                                       !- Frame and Divider Name
  ,                                       !- Multiplier
  ,                                       !- Number of Vertices
  21.6261881672932, -20.5390186764828, 0.000461286329730632, !- X,Y,Z Vertex 1 {m}
  -0.0399251615428379, -22.3098155336516, 2.1401208816943, !- X,Y,Z Vertex 2 {m}
  -2.97656792337834, -21.5666298171429, 0.000774964252863868; !- X,Y,Z Vertex 3 {m}

OS:Surface,
  {a0099208-e8d3-41b8-aa53-1dd379b18df0}, !- Handle
  surface_5_generic_window_frame,         !- Name
  Wall,                                   !- Surface Type
  {46afbc78-db78-4b49-b4d2-3d774db09462}, !- Construction Name
  {294583ff-d6e7-4759-affb-383af8c62954}, !- Space Name
  Outdoors,                               !- Outside Boundary Condition
  ,                                       !- Outside Boundary Condition Object
  SunExposed,                             !- Sun Exposure
  WindExposed,                            !- Wind Exposure
  ,                                       !- View Factor to Ground
  ,                                       !- Number of Vertices
  -0.0495913988543656, -22.3111132524972, 2.14232990456316, !- X,Y,Z Vertex 1 {m}
  -19.3864114460418, -21.5265130975128, 3.9801024621119, !- X,Y,Z Vertex 2 {m}
  -23.6755428894453, -24.8565845544444, 1.69686515514109; !- X,Y,Z Vertex 3 {m}

OS:SubSurface,
  {85df9b61-b64c-4198-93e4-3fb0fb7d0517}, !- Handle
  subsurface_5_clear_6mm,                 !- Name
  FixedWindow,                            !- Sub Surface Type
  {050897a5-a724-45ad-a8ed-340ed21517f9}, !- Construction Name
  {a0099208-e8d3-41b8-aa53-1dd379b18df0}, !- Surface Name
  ,                                       !- Outside Boundary Condition Object
  ,                                       !- View Factor to Ground
  ,                                       !- Frame and Divider Name
  ,                                       !- Multiplier
  ,                                       !- Number of Vertices
  -0.0595777763213034, -22.3115225539299, 2.14265353618245, !- X,Y,Z Vertex 1 {m}
  -19.3770854722015, -21.529063211409, 3.97754842001253, !- X,Y,Z Vertex 2 {m}
  -23.6658017614441, -24.8545342501617, 1.69781735134525; !- X,Y,Z Vertex 3 {m}

OS:Surface,
  {2c6b0631-d47d-4f56-b3dc-a14023b2d9f6}, !- Handle
  surface_6_I02_50_mm_insulation_board,   !- Name
  Wall,                                   !- Surface Type
  {fd47cc4a-d5e8-4737-a85d-b194a7a30b56}, !- Construction Name
  {294583ff-d6e7-4759-affb-383af8c62954}, !- Space Name
  Outdoors,                               !- Outside Boundary Condition
  ,                                       !- Outside Boundary Condition Object
  SunExposed,                             !- Sun Exposure
  WindExposed,                            !- Wind Exposure
  ,                                       !- View Factor to Ground
  ,                                       !- Number of Vertices
  -2.98653732059666, -21.5667325279516, 0, !- X,Y,Z Vertex 1 {m}
  -23.6755428894453, -24.8565845544444, 1.69686515514109, !- X,Y,Z Vertex 2 {m}
  -27.1335869049169, -23.187680694562, 0; !- X,Y,Z Vertex 3 {m}

OS:Surface,
  {d1e4896e-5056-4d2a-aa60-2f08f75d045c}, !- Handle
  surface_7_generic_window_frame,         !- Name
  Wall,                                   !- Surface Type
  {46afbc78-db78-4b49-b4d2-3d774db09462}, !- Construction Name
  {294583ff-d6e7-4759-affb-383af8c62954}, !- Space Name
  Outdoors,                               !- Outside Boundary Condition
  ,                                       !- Outside Boundary Condition Object
  SunExposed,                             !- Sun Exposure
  WindExposed,                            !- Wind Exposure
  ,                                       !- View Factor to Ground
  ,                                       !- Number of Vertices
  -0.0495913988543656, -22.3111132524972, 2.14232990456316, !- X,Y,Z Vertex 1 {m}
  -23.6755428894453, -24.8565845544444, 1.69686515514109, !- X,Y,Z Vertex 2 {m}
  -2.98653732059666, -21.5667325279516, 0; !- X,Y,Z Vertex 3 {m}

OS:SubSurface,
  {d69168f7-27a3-4d86-b33c-4a8515327235}, !- Handle
  subsurface_7_clear_6mm,                 !- Name
  FixedWindow,                            !- Sub Surface Type
  {050897a5-a724-45ad-a8ed-340ed21517f9}, !- Construction Name
  {d1e4896e-5056-4d2a-aa60-2f08f75d045c}, !- Surface Name
  ,                                       !- Outside Boundary Condition Object
  ,                                       !- View Factor to Ground
  ,                                       !- Frame and Divider Name
  ,                                       !- Multiplier
  ,                                       !- Number of Vertices
  -0.0595216924694815, -22.3117865735579, 2.14136248145675, !- X,Y,Z Vertex 1 {m}
  -23.6656323574514, -24.8552795512947, 1.69658529378995, !- X,Y,Z Vertex 2 {m}
  -2.9960788179435, -21.5689008747156, 0.00206351658367471; !- X,Y,Z Vertex 3 {m}

OS:Surface,
  {0aa8e7c3-2988-46ed-b7b0-509fe92e6f38}, !- Handle
  surface_8_M08_200mm_lightweight_concrete_block_filled, !- Name
  Wall,                                   !- Surface Type
  {30a7a3a5-72a1-4d52-ad14-58a436e2ceae}, !- Construction Name
  {294583ff-d6e7-4759-affb-383af8c62954}, !- Space Name
  Outdoors,                               !- Outside Boundary Condition
  ,                                       !- Outside Boundary Condition Object
  SunExposed,                             !- Sun Exposure
  WindExposed,                            !- Wind Exposure
  ,                                       !- View Factor to Ground
  ,                                       !- Number of Vertices
  -27.1335869049169, -23.187680694562, 0, !- X,Y,Z Vertex 1 {m}
  -23.7643343636057, -4.78839319937202, 3.03810767327085, !- X,Y,Z Vertex 2 {m}
  -24.7119589628944, 2.70631945184, 0;    !- X,Y,Z Vertex 3 {m}

OS:Surface,
  {9ab6262c-dafa-470d-8fc9-9a584a9babb9}, !- Handle
  surface_9_M08_200mm_lightweight_concrete_block_filled, !- Name
  Wall,                                   !- Surface Type
  {30a7a3a5-72a1-4d52-ad14-58a436e2ceae}, !- Construction Name
  {294583ff-d6e7-4759-affb-383af8c62954}, !- Space Name
  Outdoors,                               !- Outside Boundary Condition
  ,                                       !- Outside Boundary Condition Object
  SunExposed,                             !- Sun Exposure
  WindExposed,                            !- Wind Exposure
  ,                                       !- View Factor to Ground
  ,                                       !- Number of Vertices
  -23.7643343636057, -4.78839319937202, 3.03810767327085, !- X,Y,Z Vertex 1 {m}
  -20.9154347267433, 13.928800828018, 7.02137310900816, !- X,Y,Z Vertex 2 {m}
  -21.963470278182, 21.865259878585, 3.11783836766636; !- X,Y,Z Vertex 3 {m}

OS:Surface,
  {237530a0-fc3f-4cf3-897d-d641c0cf421b}, !- Handle
  surface_10_M08_200mm_lightweight_concrete_block_filled, !- Name
  Wall,                                   !- Surface Type
  {30a7a3a5-72a1-4d52-ad14-58a436e2ceae}, !- Construction Name
  {294583ff-d6e7-4759-affb-383af8c62954}, !- Space Name
  Outdoors,                               !- Outside Boundary Condition
  ,                                       !- Outside Boundary Condition Object
  SunExposed,                             !- Sun Exposure
  WindExposed,                            !- Wind Exposure
  ,                                       !- View Factor to Ground
  ,                                       !- Number of Vertices
  -24.7119589628944, 2.70631945184, 0,    !- X,Y,Z Vertex 1 {m}
  -21.963470278182, 21.865259878585, 3.11783836766636, !- X,Y,Z Vertex 2 {m}
  -22.1561353144011, 28.9420109594042, 0; !- X,Y,Z Vertex 3 {m}

OS:Surface,
  {185a59b0-64aa-4ad5-8add-1e936c5bb7a6}, !- Handle
  surface_11_M08_200mm_lightweight_concrete_block_filled, !- Name
  Wall,                                   !- Surface Type
  {30a7a3a5-72a1-4d52-ad14-58a436e2ceae}, !- Construction Name
  {294583ff-d6e7-4759-affb-383af8c62954}, !- Space Name
  Outdoors,                               !- Outside Boundary Condition
  ,                                       !- Outside Boundary Condition Object
  SunExposed,                             !- Sun Exposure
  WindExposed,                            !- Wind Exposure
  ,                                       !- View Factor to Ground
  ,                                       !- Number of Vertices
  -23.7643343636057, -4.78839319937202, 3.03810767327085, !- X,Y,Z Vertex 1 {m}
  -21.963470278182, 21.865259878585, 3.11783836766636, !- X,Y,Z Vertex 2 {m}
  -24.7119589628944, 2.70631945184, 0;    !- X,Y,Z Vertex 3 {m}

OS:Surface,
  {3e782151-6ad9-4dab-8763-4d0a309ef7ec}, !- Handle
  surface_12_M16_300mm_heavyweight_concrete, !- Name
  Floor,                                  !- Surface Type
  {86b66244-60ed-4041-aee5-5445bc350458}, !- Construction Name
  {294583ff-d6e7-4759-affb-383af8c62954}, !- Space Name
  Ground,                                 !- Outside Boundary Condition
  ,                                       !- Outside Boundary Condition Object
  NoSun,                                  !- Sun Exposure
  NoWind,                                 !- Wind Exposure
  ,                                       !- View Factor to Ground
  ,                                       !- Number of Vertices
  -22.1561353144011, 28.9420109594042, 0, !- X,Y,Z Vertex 1 {m}
  -0.906599940870921, 3.95671059155683, 0, !- X,Y,Z Vertex 2 {m}
  -24.7119589628944, 2.70631945184, 0;    !- X,Y,Z Vertex 3 {m}

OS:Surface,
  {ff33f5c2-ebe4-4cb1-96ff-0867a8d39667}, !- Handle
  surface_13_M16_300mm_heavyweight_concrete, !- Name
  Floor,                                  !- Surface Type
  {86b66244-60ed-4041-aee5-5445bc350458}, !- Construction Name
  {294583ff-d6e7-4759-affb-383af8c62954}, !- Space Name
  Ground,                                 !- Outside Boundary Condition
  ,                                       !- Outside Boundary Condition Object
  NoSun,                                  !- Sun Exposure
  NoWind,                                 !- Wind Exposure
  ,                                       !- View Factor to Ground
  ,                                       !- Number of Vertices
  -0.906599940870921, 3.95671059155683, 0, !- X,Y,Z Vertex 1 {m}
  21.6361592990283, -20.5384155621971, 0, !- X,Y,Z Vertex 2 {m}
  -2.98653732059666, -21.5667325279516, 0; !- X,Y,Z Vertex 3 {m}

OS:Surface,
  {4411b2b4-9305-4722-935a-2413d8ee168e}, !- Handle
  surface_14_M16_300mm_heavyweight_concrete, !- Name
  Floor,                                  !- Surface Type
  {86b66244-60ed-4041-aee5-5445bc350458}, !- Construction Name
  {294583ff-d6e7-4759-affb-383af8c62954}, !- Space Name
  Ground,                                 !- Outside Boundary Condition
  ,                                       !- Outside Boundary Condition Object
  NoSun,                                  !- Sun Exposure
  NoWind,                                 !- Wind Exposure
  ,                                       !- View Factor to Ground
  ,                                       !- Number of Vertices
  -24.7119589628944, 2.70631945184, 0,    !- X,Y,Z Vertex 1 {m}
  -2.98653732059666, -21.5667325279516, 0, !- X,Y,Z Vertex 2 {m}
  -27.1335869049169, -23.187680694562, 0; !- X,Y,Z Vertex 3 {m}

OS:Surface,
  {e95540d2-e672-42f2-b540-6de65a0c3056}, !- Handle
  surface_15_M16_300mm_heavyweight_concrete, !- Name
  Floor,                                  !- Surface Type
  {86b66244-60ed-4041-aee5-5445bc350458}, !- Construction Name
  {294583ff-d6e7-4759-affb-383af8c62954}, !- Space Name
  Ground,                                 !- Outside Boundary Condition
  ,                                       !- Outside Boundary Condition Object
  NoSun,                                  !- Sun Exposure
  NoWind,                                 !- Wind Exposure
  ,                                       !- View Factor to Ground
  ,                                       !- Number of Vertices
  -0.906599940870921, 3.95671059155683, 0, !- X,Y,Z Vertex 1 {m}
  -2.98653732059666, -21.5667325279516, 0, !- X,Y,Z Vertex 2 {m}
  -24.7119589628944, 2.70631945184, 0;    !- X,Y,Z Vertex 3 {m}

OS:Surface,
  {aa081908-0273-4a65-88bd-2337e41888c7}, !- Handle
  surface_16_generic_window_frame,        !- Name
  Wall,                                   !- Surface Type
  {46afbc78-db78-4b49-b4d2-3d774db09462}, !- Construction Name
  {294583ff-d6e7-4759-affb-383af8c62954}, !- Space Name
  Outdoors,                               !- Outside Boundary Condition
  ,                                       !- Outside Boundary Condition Object
  SunExposed,                             !- Sun Exposure
  WindExposed,                            !- Wind Exposure
  ,                                       !- View Factor to Ground
  ,                                       !- Number of Vertices
  -19.3864114460418, -21.5265130975128, 3.9801024621119, !- X,Y,Z Vertex 1 {m}
  -0.740848020383051, 0.126671580298279, 5.11286785638179, !- X,Y,Z Vertex 2 {m}
  -20.186932093974, -4.35862605417002, 4.9839189854826; !- X,Y,Z Vertex 3 {m}

OS:SubSurface,
  {b2abe7c0-9c23-4a2a-b2b3-70faab1369a4}, !- Handle
  subsurface_16_low_iron_3mm,             !- Name
  FixedWindow,                            !- Sub Surface Type
  {fda24fe6-c949-417f-9ea8-3610c8b719d1}, !- Construction Name
  {aa081908-0273-4a65-88bd-2337e41888c7}, !- Surface Name
  ,                                       !- Outside Boundary Condition Object
  ,                                       !- View Factor to Ground
  ,                                       !- Frame and Divider Name
  ,                                       !- Multiplier
  ,                                       !- Number of Vertices
  -19.3822400461362, -21.5174384084281, 3.98060190264116, !- X,Y,Z Vertex 1 {m}
  -0.749090367689901, 0.121015682918256, 5.11259484411117, !- X,Y,Z Vertex 2 {m}
  -20.1784631458997, -4.36393105185374, 4.98355303727437; !- X,Y,Z Vertex 3 {m}

OS:Surface,
  {f9005893-118b-4f8a-a284-cdc7f3f24484}, !- Handle
  surface_17_generic_window_frame,        !- Name
  Wall,                                   !- Surface Type
  {46afbc78-db78-4b49-b4d2-3d774db09462}, !- Construction Name
  {294583ff-d6e7-4759-affb-383af8c62954}, !- Space Name
  Outdoors,                               !- Outside Boundary Condition
  ,                                       !- Outside Boundary Condition Object
  SunExposed,                             !- Sun Exposure
  WindExposed,                            !- Wind Exposure
  ,                                       !- View Factor to Ground
  ,                                       !- Number of Vertices
  -0.740848020383051, 0.126671580298279, 5.11286785638179, !- X,Y,Z Vertex 1 {m}
  16.0531937724003, 21.7566609732412, 5.58542797376789, !- X,Y,Z Vertex 2 {m}
  -3.07230196806506, 18.6823213248371, 5.98522434191639; !- X,Y,Z Vertex 3 {m}

OS:SubSurface,
  {2a44eb6a-971a-4244-b119-0f8d00900557}, !- Handle
  subsurface_17_low_iron_3mm,             !- Name
  FixedWindow,                            !- Sub Surface Type
  {fda24fe6-c949-417f-9ea8-3610c8b719d1}, !- Construction Name
  {f9005893-118b-4f8a-a284-cdc7f3f24484}, !- Surface Name
  ,                                       !- Outside Boundary Condition Object
  ,                                       !- View Factor to Ground
  ,                                       !- Frame and Divider Name
  ,                                       !- Multiplier
  ,                                       !- Number of Vertices
  -0.737463382799172, 0.136076109142884, 5.11318260332267, !- X,Y,Z Vertex 1 {m}
  16.0449543978359, 21.7509941903617, 5.58541128291311, !- X,Y,Z Vertex 2 {m}
  -3.06420177572349, 18.6764769904232, 5.98474409272196; !- X,Y,Z Vertex 3 {m}

OS:Surface,
  {53b3d824-5d24-4374-b1ed-42968a87330c}, !- Handle
  surface_18_generic_window_frame,        !- Name
  Wall,                                   !- Surface Type