
Version,
  24.2;                                   !- Version Identifier

Timestep,
  6;                                      !- Number of Timesteps per Hour

LifeCycleCost:Parameters,
  Life Cycle Cost Parameters,             !- Name
  EndOfYear,                              !- Discounting Convention
  ConstantDollar,                         !- Inflation Approach
  0.03,                                   !- Real Discount Rate
  ,                                       !- Nominal Discount Rate
  ,                                       !- Inflation
  ,                                       !- Base Date Month
  2011,                                   !- Base Date Year
  ,                                       !- Service Date Month
  2011,                                   !- Service Date Year
  25,                                     !- Length of Study Period in Years
  ,                                       !- Tax rate
  None;                                   !- Depreciation Method

LifeCycleCost:UsePriceEscalation,
  U.S. Avg  Commercial-Electricity,       !- Name
  Electricity,                            !- Resource
  2011,                                   !- Escalation Start Year
  January,                                !- Escalation Start Month
  0.9838,                                 !- Year Escalation 1
  0.9730,                                 !- Year Escalation 2
  0.9632,                                 !- Year Escalation 3
  0.9611,                                 !- Year Escalation 4
  0.9571,                                 !- Year Escalation 5
  0.9553,                                 !- Year Escalation 6
  0.9539,                                 !- Year Escalation 7
  0.9521,                                 !- Year Escalation 8
  0.9546,                                 !- Year Escalation 9
  0.9550,                                 !- Year Escalation 10
  0.9553,                                 !- Year Escalation 11
  0.9564,                                 !- Year Escalation 12
  0.9575,                                 !- Year Escalation 13
  0.9596,                                 !- Year Escalation 14
  0.9618,                                 !- Year Escalation 15
  0.9614,                                 !- Year Escalation 16
  0.9618,                                 !- Year Escalation 17
  0.9618,                                 !- Year Escalation 18
  0.9593,                                 !- Year Escalation 19
  0.9589,                                 !- Year Escalation 20
  0.9607,                                 !- Year Escalation 21
  0.9625,                                 !- Year Escalation 22
  0.9650,                                 !- Year Escalation 23
  0.9708,                                 !- Year Escalation 24
  0.9751,                                 !- Year Escalation 25
  0.9762,                                 !- Year Escalation 26
  0.9766,                                 !- Year Escalation 27
  0.9766,                                 !- Year Escalation 28
  0.9769,                                 !- Year Escalation 29
  0.9773;                                 !- Year Escalation 30

LifeCycleCost:UsePriceEscalation,
  U.S. Avg  Commercial-Distillate Oil,    !- Name
  FuelOilNo1,                             !- Resource
  2011,                                   !- Escalation Start Year
  January,                                !- Escalation Start Month
  0.9714,                                 !- Year Escalation 1
  0.9730,                                 !- Year Escalation 2
  0.9942,                                 !- Year Escalation 3
  1.0164,                                 !- Year Escalation 4
  1.0541,                                 !- Year Escalation 5
  1.0928,                                 !- Year Escalation 6
  1.1267,                                 !- Year Escalation 7
  1.1580,                                 !- Year Escalation 8
  1.1792,                                 !- Year Escalation 9
  1.1967,                                 !- Year Escalation 10
  1.2200,                                 !- Year Escalation 11
  1.2333,                                 !- Year Escalation 12
  1.2566,                                 !- Year Escalation 13
  1.2709,                                 !- Year Escalation 14
  1.2826,                                 !- Year Escalation 15
  1.2985,                                 !- Year Escalation 16
  1.3102,                                 !- Year Escalation 17
  1.3250,                                 !- Year Escalation 18
  1.3261,                                 !- Year Escalation 19
  1.3282,                                 !- Year Escalation 20
  1.3324,                                 !- Year Escalation 21
  1.3356,                                 !- Year Escalation 22
  1.3431,                                 !- Year Escalation 23
  1.3510,                                 !- Year Escalation 24
  1.3568,                                 !- Year Escalation 25
  1.3606,                                 !- Year Escalation 26
  1.3637,                                 !- Year Escalation 27
  1.3674,                                 !- Year Escalation 28
  1.3706,                                 !- Year Escalation 29
  1.3743;                                 !- Year Escalation 30

LifeCycleCost:UsePriceEscalation,
  U.S. Avg  Commercial-Residual Oil,      !- Name
  FuelOilNo2,                             !- Resource
  2011,                                   !- Escalation Start Year
  January,                                !- Escalation Start Month
  0.8469,                                 !- Year Escalation 1
  0.8257,                                 !- Year Escalation 2
  0.8681,                                 !- Year Escalation 3
  0.8988,                                 !- Year Escalation 4
  0.9289,                                 !- Year Escalation 5
  0.9604,                                 !- Year Escalation 6
  0.9897,                                 !- Year Escalation 7
  1.0075,                                 !- Year Escalation 8
  1.0314,                                 !- Year Escalation 9
  1.0554,                                 !- Year Escalation 10
  1.0861,                                 !- Year Escalation 11
  1.1278,                                 !- Year Escalation 12
  1.1497,                                 !- Year Escalation 13
  1.1620,                                 !- Year Escalation 14
  1.1743,                                 !- Year Escalation 15
  1.1852,                                 !- Year Escalation 16
  1.1948,                                 !- Year Escalation 17
  1.2037,                                 !- Year Escalation 18
  1.2071,                                 !- Year Escalation 19
  1.2119,                                 !- Year Escalation 20
  1.2139,                                 !- Year Escalation 21
  1.2194,                                 !- Year Escalation 22
  1.2276,                                 !- Year Escalation 23
  1.2365,                                 !- Year Escalation 24
  1.2420,                                 !- Year Escalation 25
  1.2461,                                 !- Year Escalation 26
  1.2509,                                 !- Year Escalation 27
  1.2550,                                 !- Year Escalation 28
  1.2591,                                 !- Year Escalation 29
  1.2638;                                 !- Year Escalation 30

LifeCycleCost:UsePriceEscalation,
  U.S. Avg  Commercial-Natural gas,       !- Name
  NaturalGas,                             !- Resource
  2011,                                   !- Escalation Start Year
  January,                                !- Escalation Start Month
  0.9823,                                 !- Year Escalation 1
  0.9557,                                 !- Year Escalation 2
  0.9279,                                 !- Year Escalation 3
  0.9257,                                 !- Year Escalation 4
  0.9346,                                 !- Year Escalation 5
  0.9412,                                 !- Year Escalation 6
  0.9512,                                 !- Year Escalation 7
  0.9645,                                 !- Year Escalation 8
  0.9856,                                 !- Year Escalation 9
  1.0067,                                 !- Year Escalation 10
  1.0222,                                 !- Year Escalation 11
  1.0410,                                 !- Year Escalation 12
  1.0610,                                 !- Year Escalation 13
  1.0787,                                 !- Year Escalation 14
  1.0942,                                 !- Year Escalation 15
  1.1098,                                 !- Year Escalation 16
  1.1220,                                 !- Year Escalation 17
  1.1308,                                 !- Year Escalation 18
  1.1386,                                 !- Year Escalation 19
  1.1486,                                 !- Year Escalation 20
  1.1619,                                 !- Year Escalation 21
  1.1763,                                 !- Year Escalation 22
  1.1918,                                 !- Year Escalation 23
  1.2118,                                 !- Year Escalation 24
  1.2284,                                 !- Year Escalation 25
  1.2439,                                 !- Year Escalation 26
  1.2605,                                 !- Year Escalation 27
  1.2772,                                 !- Year Escalation 28
  1.2938,                                 !- Year Escalation 29
  1.3115;                                 !- Year Escalation 30

LifeCycleCost:UsePriceEscalation,
  U.S. Avg  Commercial-Coal,              !- Name
  Coal,                                   !- Resource
  2011,                                   !- Escalation Start Year
  January,                                !- Escalation Start Month
  0.9970,                                 !- Year Escalation 1
  1.0089,                                 !- Year Escalation 2
  1.0089,                                 !- Year Escalation 3
  0.9941,                                 !- Year Escalation 4
  0.9941,                                 !- Year Escalation 5
  1.0000,                                 !- Year Escalation 6
  1.0030,                                 !- Year Escalation 7
  1.0059,                                 !- Year Escalation 8
  1.0089,                                 !- Year Escalation 9
  1.0119,                                 !- Year Escalation 10
  1.0148,                                 !- Year Escalation 11
  1.0178,                                 !- Year Escalation 12
  1.0208,                                 !- Year Escalation 13
  1.0267,                                 !- Year Escalation 14
  1.0297,                                 !- Year Escalation 15
  1.0356,                                 !- Year Escalation 16
  1.0415,                                 !- Year Escalation 17
  1.0534,                                 !- Year Escalation 18
  1.0564,                                 !- Year Escalation 19
  1.0593,                                 !- Year Escalation 20
  1.0653,                                 !- Year Escalation 21
  1.0712,                                 !- Year Escalation 22
  1.0742,                                 !- Year Escalation 23
  1.0801,                                 !- Year Escalation 24
  1.0831,                                 !- Year Escalation 25
  1.0831,                                 !- Year Escalation 26
  1.0861,                                 !- Year Escalation 27
  1.0890,                                 !- Year Escalation 28
  1.0920,                                 !- Year Escalation 29
  1.0950;                                 !- Year Escalation 30

Building,
  Building 1,                             !- Name
  ,                                       !- North Axis {deg}
  ,                                       !- Terrain
  ,                                       !- Loads Convergence Tolerance Value {W}
  ,                                       !- Temperature Convergence Tolerance Value {deltaC}
  FullExterior,                           !- Solar Distribution
  ,                                       !- Maximum Number of Warmup Days
  ;                                       !- Minimum Number of Warmup Days

Zone,
  Main Zone,                              !- Name
  ,                                       !- Direction of Relative North {deg}
  0,                                      !- X Origin {m}
  0,                                      !- Y Origin {m}
  0,                                      !- Z Origin {m}
  ,                                       !- Type
  1,                                      !- Multiplier
  ,                                       !- Ceiling Height {m}
  ,                                       !- Volume {m3}
  ,                                       !- Floor Area {m2}
  ,                                       !- Zone Inside Convection Algorithm
  ,                                       !- Zone Outside Convection Algorithm
  Yes;                                    !- Part of Total Floor Area

Space,
  Main Space,                             !- Name
  Main Zone,                              !- Zone Name
  ,                                       !- Ceiling Height {m}
  ,                                       !- Volume {m3}
  ;                                       !- Floor Area {m2}

BuildingSurface:Detailed,
  surface_0_I02_50_mm_insulation_board,   !- Name
  Wall,                                   !- Surface Type
  I02_50_mm_insulation_board,             !- Construction Name
  Main Zone,                              !- Zone Name
  Main Space,                             !- Space Name
  Outdoors,                               !- Outside Boundary Condition
  ,                                       !- Outside Boundary Condition Object
  SunExposed,                             !- Sun Exposure
  WindExposed,                            !- Wind Exposure
  ,                                       !- View Factor to Ground
  ,                                       !- Number of Vertices
  -19.3864114460418, -21.5265130975128, 3.9801024621119, !- X,Y,Z Vertex 1 {m}
  -20.186932093974, -4.35862605417002, 4.9839189854826, !- X,Y,Z Vertex 2 {m}
  -23.6755428894453, -24.8565845544444, 1.69686515514109; !- X,Y,Z Vertex 3 {m}

BuildingSurface:Detailed,
  surface_10_M08_200mm_lightweight_concrete_block_filled, !- Name
  Wall,                                   !- Surface Type
  M08_200mm_lightweight_concrete_block_filled, !- Construction Name
  Main Zone,                              !- Zone Name
  Main Space,                             !- Space Name
  Outdoors,                               !- Outside Boundary Condition
  ,                                       !- Outside Boundary Condition Object
  SunExposed,                             !- Sun Exposure
  WindExposed,                            !- Wind Exposure
  ,                                       !- View Factor to Ground
  ,                                       !- Number of Vertices
  -24.7119589628944, 2.70631945184, 0,    !- X,Y,Z Vertex 1 {m}
  -21.963470278182, 21.865259878585, 3.11783836766636, !- X,Y,Z Vertex 2 {m}
  -22.1561353144011, 28.9420109594042, 0; !- X,Y,Z Vertex 3 {m}

BuildingSurface:Detailed,
  surface_11_M08_200mm_lightweight_concrete_block_filled, !- Name
  Wall,                                   !- Surface Type
  M08_200mm_lightweight_concrete_block_filled, !- Construction Name
  Main Zone,                              !- Zone Name
  Main Space,                             !- Space Name
  Outdoors,                               !- Outside Boundary Condition
  ,                                       !- Outside Boundary Condition Object
  SunExposed,                             !- Sun Exposure
  WindExposed,                            !- Wind Exposure
  ,                                       !- View Factor to Ground
  ,                                       !- Number of Vertices
  -23.7643343636057, -4.78839319937202, 3.03810767327085, !- X,Y,Z Vertex 1 {m}
  -21.963470278182, 21.865259878585, 3.11783836766636, !- X,Y,Z Vertex 2 {m}
  -24.7119589628944, 2.70631945184, 0;    !- X,Y,Z Vertex 3 {m}

BuildingSurface:Detailed,
  surface_12_M16_300mm_heavyweight_concrete, !- Name
  Floor,                                  !- Surface Type
  M16_300mm_heavyweight_concrete,         !- Construction Name
  Main Zone,                              !- Zone Name
  Main Space,                             !- Space Name
  Ground,                                 !- Outside Boundary Condition
  ,                                       !- Outside Boundary Condition Object
  NoSun,                                  !- Sun Exposure
  NoWind,                                 !- Wind Exposure
  ,                                       !- View Factor to Ground
  ,                                       !- Number of Vertices
  -22.1561353144011, 28.9420109594042, 0, !- X,Y,Z Vertex 1 {m}
  -0.906599940870921, 3.95671059155683, 0, !- X,Y,Z Vertex 2 {m}
  -24.7119589628944, 2.70631945184, 0;    !- X,Y,Z Vertex 3 {m}

BuildingSurface:Detailed,
  surface_13_M16_300mm_heavyweight_concrete, !- Name
  Floor,                                  !- Surface Type
  M16_300mm_heavyweight_concrete,         !- Construction Name
  Main Zone,                              !- Zone Name
  Main Space,                             !- Space Name
  Ground,                                 !- Outside Boundary Condition
  ,                                       !- Outside Boundary Condition Object
  NoSun,                                  !- Sun Exposure
  NoWind,                                 !- Wind Exposure
  ,                                       !- View Factor to Ground
  ,                                       !- Number of Vertices
  -0.906599940870921, 3.95671059155683, 0, !- X,Y,Z Vertex 1 {m}
  21.6361592990283, -20.5384155621971, 0, !- X,Y,Z Vertex 2 {m}
  -2.98653732059666, -21.5667325279516, 0; !- X,Y,Z Vertex 3 {m}

BuildingSurface:Detailed,
  surface_14_M16_300mm_heavyweight_concrete, !- Name
  Floor,                                  !- Surface Type
  M16_300mm_heavyweight_concrete,         !- Construction Name
  Main Zone,                              !- Zone Name
  Main Space,                             !- Space Name
  Ground,                                 !- Outside Boundary Condition
  ,                                       !- Outside Boundary Condition Object
  NoSun,                                  !- Sun Exposure
  NoWind,                                 !- Wind Exposure
  ,                                       !- View Factor to Ground
  ,                                       !- Number of Vertices
  -24.7119589628944, 2.70631945184, 0,    !- X,Y,Z Vertex 1 {m}
  -2.98653732059666, -21.5667325279516, 0, !- X,Y,Z Vertex 2 {m}
  -27.1335869049169, -23.187680694562, 0; !- X,Y,Z Vertex 3 {m}

BuildingSurface:Detailed,
  surface_15_M16_300mm_heavyweight_concrete, !- Name
  Floor,                                  !- Surface Type
  M16_300mm_heavyweight_concrete,         !- Construction Name
  Main Zone,                              !- Zone Name
  Main Space,                             !- Space Name
  Ground,                                 !- Outside Boundary Condition
  ,                                       !- Outside Boundary Condition Object
  NoSun,                                  !- Sun Exposure
  NoWind,                                 !- Wind Exposure
  ,                                       !- View Factor to Ground
  ,                                       !- Number of Vertices
  -0.906599940870921, 3.95671059155683, 0, !- X,Y,Z Vertex 1 {m}
  -2.98653732059666, -21.5667325279516, 0, !- X,Y,Z Vertex 2 {m}
  -24.7119589628944, 2.70631945184, 0;    !- X,Y,Z Vertex 3 {m}

BuildingSurface:Detailed,
  surface_16_generic_window_frame,        !- Name
  Wall,                                   !- Surface Type
  generic_window_frame,                   !- Construction Name
  Main Zone,                              !- Zone Name
  Main Space,                             !- Space Name
  Outdoors,                               !- Outside Boundary Condition
  ,                                       !- Outside Boundary Condition Object
  SunExposed,                             !- Sun Exposure
  WindExposed,                            !- Wind Exposure
  ,                                       !- View Factor to Ground
  ,                                       !- Number of Vertices
  -19.3864114460418, -21.5265130975128, 3.9801024621119, !- X,Y,Z Vertex 1 {m}
  -0.740848020383051, 0.126671580298279, 5.11286785638179, !- X,Y,Z Vertex 2 {m}
  -20.186932093974, -4.35862605417002, 4.9839189854826; !- X,Y,Z Vertex 3 {m}

FenestrationSurface:Detailed,
  subsurface_16_low_iron_3mm,             !- Name
  Window,                                 !- Surface Type
  low_iron_3mm,                           !- Construction Name
  surface_16_generic_window_frame,        !- Building Surface Name
  ,                                       !- Outside Boundary Condition Object
  ,                                       !- View Factor to Ground
  ,                                       !- Frame and Divider Name
  ,                                       !- Multiplier
  ,                                       !- Number of Vertices
  -19.3822400461362, -21.5174384084281, 3.98060190264116, !- X,Y,Z Vertex 1 {m}
  -0.749090367689901, 0.121015682918256, 5.11259484411117, !- X,Y,Z Vertex 2 {m}
  -20.1784631458997, -4.36393105185374, 4.98355303727437; !- X,Y,Z Vertex 3 {m}

BuildingSurface:Detailed,
  surface_17_generic_window_frame,        !- Name
  Wall,                                   !- Surface Type
  generic_window_frame,                   !- Construction Name
  Main Zone,                              !- Zone Name
  Main Space,                             !- Space Name
  Outdoors,                               !- Outside Boundary Condition
  ,                                       !- Outside Boundary Condition Object
  SunExposed,                             !- Sun Exposure
  WindExposed,                            !- Wind Exposure
  ,                                       !- View Factor to Ground
  ,                                       !- Number of Vertices
  -0.740848020383051, 0.126671580298279, 5.11286785638179, !- X,Y,Z Vertex 1 {m}
  16.0531937724003, 21.7566609732412, 5.58542797376789, !- X,Y,Z Vertex 2 {m}
  -3.07230196806506, 18.6823213248371, 5.98522434191639; !- X,Y,Z Vertex 3 {m}

FenestrationSurface:Detailed,
  subsurface_17_low_iron_3mm,             !- Name
  Window,                                 !- Surface Type
  low_iron_3mm,                           !- Construction Name
  surface_17_generic_window_frame,        !- Building Surface Name
  ,                                       !- Outside Boundary Condition Object
  ,                                       !- View Factor to Ground
  ,                                       !- Frame and Divider Name
  ,                                       !- Multiplier
  ,                                       !- Number of Vertices
  -0.737463382799172, 0.136076109142884, 5.11318260332267, !- X,Y,Z Vertex 1 {m}
  16.0449543978359, 21.7509941903617, 5.58541128291311, !- X,Y,Z Vertex 2 {m}
  -3.06420177572349, 18.6764769904232, 5.98474409272196; !- X,Y,Z Vertex 3 {m}

BuildingSurface:Detailed,
  surface_18_generic_window_frame,        !- Name
  Wall,                                   !- Surface Type
  generic_window_frame,                   !- Construction Name
  Main Zone,                              !- Zone Name
  Main Space,                             !- Space Name
  Outdoors,                               !- Outside Boundary Condition
  ,                                       !- Outside Boundary Condition Object
  SunExposed,                             !- Sun Exposure
  WindExposed,                            !- Wind Exposure
  ,                                       !- View Factor to Ground
  ,                                       !- Number of Vertices
  -20.186932093974, -4.35862605417002, 4.9839189854826, !- X,Y,Z Vertex 1 {m}
  -3.07230196806506, 18.6823213248371, 5.98522434191639, !- X,Y,Z Vertex 2 {m}
  -20.9154347267433, 13.928800828018, 7.02137310900816; !- X,Y,Z Vertex 3 {m}

FenestrationSurface:Detailed,
  subsurface_18_low_iron_3mm,             !- Name
  Window,                                 !- Surface Type
  low_iron_3mm,                           !- Construction Name
  surface_18_generic_window_frame,        !- Building Surface Name
  ,                                       !- Outside Boundary Condition Object
  ,                                       !- View Factor to Ground
  ,                                       !- Frame and Divider Name
  ,                                       !- Multiplier
  ,                                       !- Number of Vertices
  -20.1832549431237, -4.34935170508304, 4.98460090236688, !- X,Y,Z Vertex 1 {m}
  -3.08012937707911, 18.6760978525539, 5.98523214372074, !- X,Y,Z Vertex 2 {m}
  -20.9074243467519, 13.9229633381777, 7.0200473923129; !- X,Y,Z Vertex 3 {m}

BuildingSurface:Detailed,
  surface_19_generic_window_frame,        !- Name
  Wall,                                   !- Surface Type
  generic_window_frame,                   !- Construction Name
  Main Zone,                              !- Zone Name
  Main Space,                             !- Space Name
  Outdoors,                               !- Outside Boundary Condition
  ,                                       !- Outside Boundary Condition Object
  SunExposed,                             !- Sun Exposure
  WindExposed,                            !- Wind Exposure
  ,                                       !- View Factor to Ground
  ,                                       !- Number of Vertices
  -0.740848020383051, 0.126671580298279, 5.11286785638179, !- X,Y,Z Vertex 1 {m}
  -3.07230196806506, 18.6823213248371, 5.98522434191639, !- X,Y,Z Vertex 2 {m}
  -20.186932093974, -4.35862605417002, 4.9839189854826; !- X,Y,Z Vertex 3 {m}

FenestrationSurface:Detailed,
  subsurface_19_low_iron_3mm,             !- Name
  Window,                                 !- Surface Type
  low_iron_3mm,                           !- Construction Name
  surface_19_generic_window_frame,        !- Building Surface Name
  ,                                       !- Outside Boundary Condition Object
  ,                                       !- View Factor to Ground
  ,                                       !- Frame and Divider Name
  ,                                       !- Multiplier
  ,                                       !- Number of Vertices
  -0.749243962974577, 0.132096154391242, 5.11315446397024, !- X,Y,Z Vertex 1 {m}
  -3.07564770014946, 18.6729071727009, 5.98480029430548, !- X,Y,Z Vertex 2 {m}
  -20.1789456302772, -4.35261311483547, 4.98416588258383; !- X,Y,Z Vertex 3 {m}

BuildingSurface:Detailed,
  surface_1_generic_window_frame,         !- Name
  Wall,                                   !- Surface Type
  generic_window_frame,                   !- Construction Name
  Main Zone,                              !- Zone Name
  Main Space,                             !- Space Name
  Outdoors,                               !- Outside Boundary Condition
  ,                                       !- Outside Boundary Condition Object
  SunExposed,                             !- Sun Exposure
  WindExposed,                            !- Wind Exposure
  ,                                       !- View Factor to Ground
  ,                                       !- Number of Vertices
  -20.186932093974, -4.35862605417002, 4.9839189854826, !- X,Y,Z Vertex 1 {m}
  -20.9154347267433, 13.928800828018, 7.02137310900816, !- X,Y,Z Vertex 2 {m}
  -23.7643343636057, -4.78839319937202, 3.03810767327085; !- X,Y,Z Vertex 3 {m}

FenestrationSurface:Detailed,
  subsurface_1_clear_6mm,                 !- Name
  Window,                                 !- Surface Type
  clear_6mm,                              !- Construction Name
  surface_1_generic_window_frame,         !- Building Surface Name
  ,                                       !- Outside Boundary Condition Object
  ,                                       !- View Factor to Ground
  ,                                       !- Frame and Divider Name
  ,                                       !- Multiplier
  ,                                       !- Number of Vertices
  -20.189276121943, -4.3489047865541, 4.98396887355904, !- X,Y,Z Vertex 1 {m}
  -20.9159993960864, 13.9189463644731, 7.01976976975072, !- X,Y,Z Vertex 2 {m}
  -23.7612813333159, -4.77929679318566, 3.04092448006976; !- X,Y,Z Vertex 3 {m}

BuildingSurface:Detailed,
  surface_20_I02_50_mm_insulation_board,  !- Name
  Wall,                                   !- Surface Type
  I02_50_mm_insulation_board,             !- Construction Name
  Main Zone,                              !- Zone Name
  Main Space,                             !- Space Name
  Outdoors,                               !- Outside Boundary Condition
  ,                                       !- Outside Boundary Condition Object
  SunExposed,                             !- Sun Exposure
  WindExposed,                            !- Wind Exposure
  ,                                       !- View Factor to Ground
  ,                                       !- Number of Vertices
  22.8894323070577, -16.8193348315884, 4.28003241243662, !- X,Y,Z Vertex 1 {m}
  2.05812222316361, -19.4671391502577, 3.82615097069646, !- X,Y,Z Vertex 2 {m}
  22.3194771638653, -19.4997997593814, 2.08548603737886; !- X,Y,Z Vertex 3 {m}

BuildingSurface:Detailed,