
OS:Version,
  {a9bd233a-57f1-4e23-9199-e6e7f2b60036}, !- Handle
  3.9.0;                                  !- Version Identifier

OS:Space,
  {ec7c586e-06cb-4a75-9640-822e2caaa177}, !- Handle
  Main Space,                             !- Name
  ,                                       !- Space Type Name
  ,                                       !- Default Construction Set Name
  ,                                       !- Default Schedule Set Name
  ,                                       !- Direction of Relative North {deg}
  ,                                       !- X Origin {m}
  ,                                       !- Y Origin {m}
  ,                                       !- Z Origin {m}
  ,                                       !- Building Story Name
  {ae6cf7a2-e8e6-4ac2-a091-67d6a9bf2d23}; !- Thermal Zone Name

OS:Construction,
  {895e8bbd-89c1-42cb-9e48-cd5d18d432c0}, !- Handle
  M08_200mm_lightweight_concrete_block_filled, !- Name
  ,                                       !- Surface Rendering Name
  {71b43a5f-a83f-4946-870c-41ef08403f4b}; !- Layer 1

OS:Material,
  {71b43a5f-a83f-4946-870c-41ef08403f4b}, !- Handle
  M08_200mm_lightweight_concrete_block_filled, !- Name
  MediumRough,                            !- Roughness
  0.2032,                                 !- Thickness {m}
  0.26,                                   !- Conductivity {W/m-K}
  464,                                    !- Density {kg/m3}
  880,                                    !- Specific Heat {J/kg-K}
  0.9,                                    !- Thermal Absorptance
  0.7,                                    !- Solar Absorptance
  0.7;                                    !- Visible Absorptance

OS:Construction,
  {87e03797-f8ca-4d9f-b5ca-0e8fd2bf4b20}, !- Handle
  generic_window_frame,                   !- Name
  ,                                       !- Surface Rendering Name
  {e5cfe33a-a348-4d20-bdde-93e6b026cfec}; !- Layer 1

OS:Material,
  {e5cfe33a-a348-4d20-bdde-93e6b026cfec}, !- Handle
  generic_window_frame,                   !- Name
  MediumSmooth,                           !- Roughness
  0.1,                                    !- Thickness {m}
  0.17,                                   !- Conductivity {W/m-K}
  700,                                    !- Density {kg/m3}
  1000,                                   !- Specific Heat {J/kg-K}
  0.9,                                    !- Thermal Absorptance
  0.7,                                    !- Solar Absorptance
  0.7;                                    !- Visible Absorptance

OS:Construction,
  {8d6706c8-f241-42c1-a76b-ad9018661ee1}, !- Handle
  clear_6mm,                              !- Name
  ,                                       !- Surface Rendering Name
  {8dea4d24-6198-4bab-aa0a-580eb224f516}; !- Layer 1

OS:WindowMaterial:Glazing,
  {8dea4d24-6198-4bab-aa0a-580eb224f516}, !- Handle
  clear_6mm,                              !- Name
  SpectralAverage,                        !- Optical Data Type
  ,                                       !- Window Glass Spectral Data Set Name
  0.006,                                  !- Thickness {m}
  0.775,                                  !- Solar Transmittance at Normal Incidence
  0.071,                                  !- Front Side Solar Reflectance at Normal Incidence
  0.071,                                  !- Back Side Solar Reflectance at Normal Incidence
  0.881,                                  !- Visible Transmittance at Normal Incidence
  0.08,                                   !- Front Side Visible Reflectance at Normal Incidence
  0.08,                                   !- Back Side Visible Reflectance at Normal Incidence
  0,                                      !- Infrared Transmittance at Normal Incidence
  0.84,                                   !- Front Side Infrared Hemispherical Emissivity
  0.84,                                   !- Back Side Infrared Hemispherical Emissivity
  0.9;                                    !- Conductivity {W/m-K}

OS:Construction,
  {ae00b9a1-70f4-4362-ab97-9c678085831a}, !- Handle
  low_iron_3mm,                           !- Name
  ,                                       !- Surface Rendering Name
  {03f0fa38-cec1-481d-ba34-dd7c35d09caf}; !- Layer 1

OS:WindowMaterial:Glazing,
  {03f0fa38-cec1-481d-ba34-dd7c35d09caf}, !- Handle
  low_iron_3mm,                           !- Name
  SpectralAverage,                        !- Optical Data Type
  ,                                       !- Window Glass Spectral Data Set Name
  0.003,                                  !- Thickness {m}
  0.899,                                  !- Solar Transmittance at Normal Incidence
  0.079,                                  !- Front Side Solar Reflectance at Normal Incidence
  0.079,                                  !- Back Side Solar Reflectance at Normal Incidence
  0.913,                                  !- Visible Transmittance at Normal Incidence
  0.082,                                  !- Front Side Visible Reflectance at Normal Incidence
  0.082,                                  !- Back Side Visible Reflectance at Normal Incidence
  0,                                      !- Infrared Transmittance at Normal Incidence
  0.84,                                   !- Front Side Infrared Hemispherical Emissivity
  0.84,                                   !- Back Side Infrared Hemispherical Emissivity
  0.9;                                    !- Conductivity {W/m-K}

OS:Construction,
  {4a885065-94ce-45d2-93b3-49fa7470e059}, !- Handle
  M16_300mm_heavyweight_concrete,         !- Name
  ,                                       !- Surface Rendering Name
  {24eabb5c-bc5d-497f-b5a8-71fa8596792f}; !- Layer 1

OS:Material,
  {24eabb5c-bc5d-497f-b5a8-71fa8596792f}, !- Handle
  M16_300mm_heavyweight_concrete,         !- Name
  MediumRough,                            !- Roughness
  0.3048,                                 !- Thickness {m}
  1.95,                                   !- Conductivity {W/m-K}
  2240,                                   !- Density {kg/m3}
  900,                                    !- Specific Heat {J/kg-K}
  0.9,                                    !- Thermal Absorptance
  0.7,                                    !- Solar Absorptance
  0.7;                                    !- Visible Absorptance

OS:Construction,
  {70ff625c-ee1c-4a6c-abde-5c460818a724}, !- Handle
  I02_50_mm_insulation_board,             !- Name
  ,                                       !- Surface Rendering Name
  {4fccccf1-430d-4699-b4a6-587551b00ed9}; !- Layer 1

OS:Material,
  {4fccccf1-430d-4699-b4a6-587551b00ed9}, !- Handle
  I02_50_mm_insulation_board,             !- Name
  MediumRough,                            !- Roughness
  0.0508,                                 !- Thickness {m}
  0.03,                                   !- Conductivity {W/m-K}
  43,                                     !- Density {kg/m3}
  1210,                                   !- Specific Heat {J/kg-K}
  0.9,                                    !- Thermal Absorptance
  0.7,                                    !- Solar Absorptance
  0.7;                                    !- Visible Absorptance

OS:Surface,
  {0a86d383-e533-4009-8d6c-afa84b0a3cc8}, !- Handle
  surface_0_I02_50_mm_insulation_board,   !- Name
  Wall,                                   !- Surface Type
  {70ff625c-ee1c-4a6c-abde-5c460818a724}, !- Construction Name
  {ec7c586e-06cb-4a75-9640-822e2caaa177}, !- Space Name
  Outdoors,                               !- Outside Boundary Condition
  ,                                       !- Outside Boundary Condition Object
  SunExposed,                             !- Sun Exposure
  WindExposed,                            !- Wind Exposure
  ,                                       !- View Factor to Ground
  ,                                       !- Number of Vertices
  -19.3865896591711, -21.5266898001009, 3.97997467278998, !- X,Y,Z Vertex 1 {m}
  -20.1638582203565, -4.40325671634277, 4.96794806839849, !- X,Y,Z Vertex 2 {m}
  -23.673905261024, -24.8584594926502, 1.69636115530613; !- X,Y,Z Vertex 3 {m}

OS:Surface,
  {36d8fa72-f06b-4468-903a-a698b93f65e1}, !- Handle
  surface_1_generic_window_frame,         !- Name
  Wall,                                   !- Surface Type
  {87e03797-f8ca-4d9f-b5ca-0e8fd2bf4b20}, !- Construction Name
  {ec7c586e-06cb-4a75-9640-822e2caaa177}, !- Space Name
  Outdoors,                               !- Outside Boundary Condition
  ,                                       !- Outside Boundary Condition Object
  SunExposed,                             !- Sun Exposure
  WindExposed,                            !- Wind Exposure
  ,                                       !- View Factor to Ground
  ,                                       !- Number of Vertices
  -20.1638582203565, -4.40325671634277, 4.96794806839849, !- X,Y,Z Vertex 1 {m}
  -20.9052793016059, 13.9254130000007, 7.02022174972463, !- X,Y,Z Vertex 2 {m}
  -23.7645330728936, -4.78835080371383, 3.03803428511351; !- X,Y,Z Vertex 3 {m}

OS:SubSurface,
  {a8eee7ff-2868-4647-abff-f61014860f4e}, !- Handle
  subsurface_1_clear_6mm,                 !- Name
  FixedWindow,                            !- Sub Surface Type
  {8d6706c8-f241-42c1-a76b-ad9018661ee1}, !- Construction Name
  {36d8fa72-f06b-4468-903a-a698b93f65e1}, !- Surface Name
  ,                                       !- Outside Boundary Condition Object
  ,                                       !- View Factor to Ground
  ,                                       !- Frame and Divider Name
  ,                                       !- Multiplier
  ,                                       !- Number of Vertices
  -20.166210146642, -4.39353745453459, 4.96801434548331, !- X,Y,Z Vertex 1 {m}
  -20.9058426981002, 13.9155587856969, 7.01861643204733, !- X,Y,Z Vertex 2 {m}
  -23.7614584846448, -4.77926074599688, 3.04084813617614; !- X,Y,Z Vertex 3 {m}

OS:Surface,
  {8f553cbd-068a-4ec4-8a7c-6040d823e8f5}, !- Handle
  surface_2_generic_window_frame,         !- Name
  Wall,                                   !- Surface Type
  {87e03797-f8ca-4d9f-b5ca-0e8fd2bf4b20}, !- Construction Name
  {ec7c586e-06cb-4a75-9640-822e2caaa177}, !- Space Name
  Outdoors,                               !- Outside Boundary Condition
  ,                                       !- Outside Boundary Condition Object
  SunExposed,                             !- Sun Exposure
  WindExposed,                            !- Wind Exposure
  ,                                       !- View Factor to Ground
  ,                                       !- Number of Vertices
  -23.673905261024, -24.8584594926502, 1.69636115530613, !- X,Y,Z Vertex 1 {m}
  -23.7645330728936, -4.78835080371383, 3.03803428511351, !- X,Y,Z Vertex 2 {m}
  -27.1326658998145, -23.1882757298533, 0; !- X,Y,Z Vertex 3 {m}

OS:SubSurface,
  {4a898770-035a-4f86-9d38-f8a3ada3f7c5}, !- Handle
  subsurface_2_clear_6mm,                 !- Name
  FixedWindow,                            !- Sub Surface Type
  {8d6706c8-f241-42c1-a76b-ad9018661ee1}, !- Construction Name
  {8f553cbd-068a-4ec4-8a7c-6040d823e8f5}, !- Surface Name
  ,                                       !- Outside Boundary Condition Object
  ,                                       !- View Factor to Ground
  ,                                       !- Frame and Divider Name
  ,                                       !- Multiplier
  ,                                       !- Number of Vertices
  -23.6755163503747, -24.8485914395654, 1.69620016021961, !- X,Y,Z Vertex 1 {m}
  -23.7653765512948, -4.7982512134154, 3.03690715072588, !- X,Y,Z Vertex 2 {m}
  -27.1290110511751, -23.1793192883862, 0.00253460799125953; !- X,Y,Z Vertex 3 {m}

OS:Surface,
  {a9c9ad79-be7b-40cb-9611-e49eee99b7a7}, !- Handle
  surface_3_I02_50_mm_insulation_board,   !- Name
  Wall,                                   !- Surface Type
  {70ff625c-ee1c-4a6c-abde-5c460818a724}, !- Construction Name
  {ec7c586e-06cb-4a75-9640-822e2caaa177}, !- Space Name
  Outdoors,                               !- Outside Boundary Condition
  ,                                       !- Outside Boundary Condition Object
  SunExposed,                             !- Sun Exposure
  WindExposed,                            !- Wind Exposure
  ,                                       !- View Factor to Ground
  ,                                       !- Number of Vertices
  -20.1638582203565, -4.40325671634277, 4.96794806839849, !- X,Y,Z Vertex 1 {m}
  -23.7645330728936, -4.78835080371383, 3.03803428511351, !- X,Y,Z Vertex 2 {m}
  -23.673905261024, -24.8584594926502, 1.69636115530613; !- X,Y,Z Vertex 3 {m}

OS:Surface,
  {fac72a57-d257-4252-8d20-86916e198b9a}, !- Handle
  surface_4_generic_window_frame,         !- Name
  Wall,                                   !- Surface Type
  {87e03797-f8ca-4d9f-b5ca-0e8fd2bf4b20}, !- Construction Name
  {ec7c586e-06cb-4a75-9640-822e2caaa177}, !- Space Name
  Outdoors,                               !- Outside Boundary Condition
  ,                                       !- Outside Boundary Condition Object
  SunExposed,                             !- Sun Exposure
  WindExposed,                            !- Wind Exposure
  ,                                       !- View Factor to Ground
  ,                                       !- Number of Vertices
  21.6364635793188, -20.5389909232188, 0, !- X,Y,Z Vertex 1 {m}
  -0.0477164589241419, -22.3119460086045, 2.14166628196599, !- X,Y,Z Vertex 2 {m}
  -2.98512323862046, -21.5680229265127, 0; !- X,Y,Z Vertex 3 {m}

OS:SubSurface,
  {0f49a9f3-3a34-45a3-afd4-7f13d8888aa2}, !- Handle
  subsurface_4_clear_6mm,                 !- Name
  FixedWindow,                            !- Sub Surface Type
  {8d6706c8-f241-42c1-a76b-ad9018661ee1}, !- Construction Name
  {fac72a57-d257-4252-8d20-86916e198b9a}, !- Surface Name
  ,                                       !- Outside Boundary Condition Object
  ,                                       !- View Factor to Ground
  ,                                       !- Frame and Divider Name
  ,                                       !- Multiplier
  ,                                       !- Number of Vertices
  21.6264924569348, -20.5395942812469, 0.0004611696998695, !- X,Y,Z Vertex 1 {m}
  -0.0380501312948876, -22.310648240256, 2.13945768343348, !- X,Y,Z Vertex 2 {m}
  -2.97515382864492, -21.5679197889393, 0.000774743428858101; !- X,Y,Z Vertex 3 {m}

OS:Surface,
  {bb3fbfba-0df2-4f77-9ef7-62835a193dab}, !- Handle
  surface_5_generic_window_frame,         !- Name
  Wall,                                   !- Surface Type
  {87e03797-f8ca-4d9f-b5ca-0e8fd2bf4b20}, !- Construction Name
  {ec7c586e-06cb-4a75-9640-822e2caaa177}, !- Space Name
  Outdoors,                               !- Outside Boundary Condition
  ,                                       !- Outside Boundary Condition Object
  SunExposed,                             !- Sun Exposure
  WindExposed,                            !- Wind Exposure
  ,                                       !- View Factor to Ground
  ,                                       !- Number of Vertices
  -0.0477164589241419, -22.3119460086045, 2.14166628196599, !- X,Y,Z Vertex 1 {m}
  -19.3865896591711, -21.5266898001009, 3.97997467278998, !- X,Y,Z Vertex 2 {m}
  -23.673905261024, -24.8584594926502, 1.69636115530613; !- X,Y,Z Vertex 3 {m}

OS:SubSurface,
  {d5bf5b9a-7760-41ca-a55c-cab40d711482}, !- Handle
  subsurface_5_clear_6mm,                 !- Name
  FixedWindow,                            !- Sub Surface Type
  {8d6706c8-f241-42c1-a76b-ad9018661ee1}, !- Construction Name
  {bb3fbfba-0df2-4f77-9ef7-62835a193dab}, !- Surface Name
  ,                                       !- Outside Boundary Condition Object
  ,                                       !- View Factor to Ground
  ,                                       !- Frame and Divider Name
  ,                                       !- Multiplier
  ,                                       !- Number of Vertices
  -0.0577028289466746, -22.3123553776601, 2.14199005773612, !- X,Y,Z Vertex 1 {m}
  -19.3772638546069, -21.529240670912, 3.9774207684585, !- X,Y,Z Vertex 2 {m}
  -23.6641643592367, -24.856408163721, 1.69731345882608; !- X,Y,Z Vertex 3 {m}

OS:Surface,
  {fb4b2ed2-bf7a-44a9-a034-c2f86337655b}, !- Handle
  surface_6_I02_50_mm_insulation_board,   !- Name
  Wall,                                   !- Surface Type
  {70ff625c-ee1c-4a6c-abde-5c460818a724}, !- Construction Name
  {ec7c586e-06cb-4a75-9640-822e2caaa177}, !- Space Name
  Outdoors,                               !- Outside Boundary Condition
  ,                                       !- Outside Boundary Condition Object
  SunExposed,                             !- Sun Exposure
  WindExposed,                            !- Wind Exposure
  ,                                       !- View Factor to Ground
  ,                                       !- Number of Vertices
  -2.98512323862046, -21.5680229265127, 0, !- X,Y,Z Vertex 1 {m}
  -23.673905261024, -24.8584594926502, 1.69636115530613, !- X,Y,Z Vertex 2 {m}
  -27.1326658998145, -23.1882757298533, 0; !- X,Y,Z Vertex 3 {m}

OS:Surface,
  {39ea9aa5-c7c7-406e-9d69-a0779e062345}, !- Handle
  surface_7_generic_window_frame,         !- Name
  Wall,                                   !- Surface Type
  {87e03797-f8ca-4d9f-b5ca-0e8fd2bf4b20}, !- Construction Name
  {ec7c586e-06cb-4a75-9640-822e2caaa177}, !- Space Name
  Outdoors,                               !- Outside Boundary Condition
  ,                                       !- Outside Boundary Condition Object
  SunExposed,                             !- Sun Exposure
  WindExposed,                            !- Wind Exposure
  ,                                       !- View Factor to Ground
  ,                                       !- Number of Vertices
  -0.0477164589241419, -22.3119460086045, 2.14166628196599, !- X,Y,Z Vertex 1 {m}
  -23.673905261024, -24.8584594926502, 1.69636115530613, !- X,Y,Z Vertex 2 {m}
  -2.98512323862046, -21.5680229265127, 0; !- X,Y,Z Vertex 3 {m}

OS:SubSurface,
  {e2aa47f3-f67d-404e-871f-99bcadcac87a}, !- Handle
  subsurface_7_clear_6mm,                 !- Name
  FixedWindow,                            !- Sub Surface Type
  {8d6706c8-f241-42c1-a76b-ad9018661ee1}, !- Construction Name
  {39ea9aa5-c7c7-406e-9d69-a0779e062345}, !- Surface Name
  ,                                       !- Outside Boundary Condition Object
  ,                                       !- View Factor to Ground
  ,                                       !- Frame and Divider Name
  ,                                       !- Multiplier
  ,                                       !- Number of Vertices
  -0.057646748221752, -22.3126198723561, 2.14069919246136, !- X,Y,Z Vertex 1 {m}
  -23.6639947738966, -24.8571541320179, 1.69608137232451, !- X,Y,Z Vertex 2 {m}
  -2.99466481244982, -21.5701914424677, 0.00206298507305112; !- X,Y,Z Vertex 3 {m}

OS:Surface,
  {db8ac23b-87e3-4058-9143-eb2912ad50e0}, !- Handle
  surface_8_M08_200mm_lightweight_concrete_block_filled, !- Name
  Wall,                                   !- Surface Type
  {895e8bbd-89c1-42cb-9e48-cd5d18d432c0}, !- Construction Name
  {ec7c586e-06cb-4a75-9640-822e2caaa177}, !- Space Name
  Outdoors,                               !- Outside Boundary Condition
  ,                                       !- Outside Boundary Condition Object
  SunExposed,                             !- Sun Exposure
  WindExposed,                            !- Wind Exposure
  ,                                       !- View Factor to Ground
  ,                                       !- Number of Vertices
  -27.1326658998145, -23.1882757298533, 0, !- X,Y,Z Vertex 1 {m}
  -23.7645330728936, -4.78835080371383, 3.03803428511351, !- X,Y,Z Vertex 2 {m}
  -24.7102380726011, 2.70533979448517, 0; !- X,Y,Z Vertex 3 {m}

OS:Surface,
  {02cbac14-25ff-4d47-901f-79bed7c6a077}, !- Handle
  surface_9_M08_200mm_lightweight_concrete_block_filled, !- Name
  Wall,                                   !- Surface Type
  {895e8bbd-89c1-42cb-9e48-cd5d18d432c0}, !- Construction Name
  {ec7c586e-06cb-4a75-9640-822e2caaa177}, !- Space Name
  Outdoors,                               !- Outside Boundary Condition
  ,                                       !- Outside Boundary Condition Object
  SunExposed,                             !- Sun Exposure
  WindExposed,                            !- Wind Exposure
  ,                                       !- View Factor to Ground
  ,                                       !- Number of Vertices
  -23.7645330728936, -4.78835080371383, 3.03803428511351, !- X,Y,Z Vertex 1 {m}
  -20.9052793016059, 13.9254130000007, 7.02022174972463, !- X,Y,Z Vertex 2 {m}
  -21.964288233572, 21.864107183825, 3.11813420059979; !- X,Y,Z Vertex 3 {m}

OS:Surface,
  {3ca533fc-6ea3-41c9-a4ef-2bd902f0d674}, !- Handle
  surface_10_M08_200mm_lightweight_concrete_block_filled, !- Name
  Wall,                                   !- Surface Type
  {895e8bbd-89c1-42cb-9e48-cd5d18d432c0}, !- Construction Name
  {ec7c586e-06cb-4a75-9640-822e2caaa177}, !- Space Name
  Outdoors,                               !- Outside Boundary Condition
  ,                                       !- Outside Boundary Condition Object
  SunExposed,                             !- Sun Exposure
  WindExposed,                            !- Wind Exposure
  ,                                       !- View Factor to Ground
  ,                                       !- Number of Vertices
  -24.7102380726011, 2.70533979448517, 0, !- X,Y,Z Vertex 1 {m}
  -21.964288233572, 21.864107183825, 3.11813420059979, !- X,Y,Z Vertex 2 {m}
  -22.1554661994817, 28.9417972647831, 0; !- X,Y,Z Vertex 3 {m}

OS:Surface,
  {4d295217-e34a-4375-b506-4fcf3eaf4c65}, !- Handle
  surface_11_M08_200mm_lightweight_concrete_block_filled, !- Name
  Wall,                                   !- Surface Type
  {895e8bbd-89c1-42cb-9e48-cd5d18d432c0}, !- Construction Name
  {ec7c586e-06cb-4a75-9640-822e2caaa177}, !- Space Name
  Outdoors,                               !- Outside Boundary Condition
  ,                                       !- Outside Boundary Condition Object
  SunExposed,                             !- Sun Exposure
  WindExposed,                            !- Wind Exposure
  ,                                       !- View Factor to Ground
  ,                                       !- Number of Vertices
  -23.7645330728936, -4.78835080371383, 3.03803428511351, !- X,Y,Z Vertex 1 {m}
  -21.964288233572, 21.864107183825, 3.11813420059979, !- X,Y,Z Vertex 2 {m}
  -24.7102380726011, 2.70533979448517, 0; !- X,Y,Z Vertex 3 {m}

OS:Surface,
  {67540f73-6fca-4aa5-b329-1723cf2e3e21}, !- Handle
  surface_12_M16_300mm_heavyweight_concrete, !- Name
  Floor,                                  !- Surface Type
  {4a885065-94ce-45d2-93b3-49fa7470e059}, !- Construction Name
  {ec7c586e-06cb-4a75-9640-822e2caaa177}, !- Space Name
  Ground,                                 !- Outside Boundary Condition
  ,                                       !- Outside Boundary Condition Object
  NoSun,                                  !- Sun Exposure
  NoWind,                                 !- Wind Exposure
  ,                                       !- View Factor to Ground
  ,                                       !- Number of Vertices
  -22.1554661994817, 28.9417972647831, 0, !- X,Y,Z Vertex 1 {m}
  -0.907447083161214, 3.95628785519057, 0, !- X,Y,Z Vertex 2 {m}
  -24.7102380726011, 2.70533979448517, 0; !- X,Y,Z Vertex 3 {m}

OS:Surface,
  {9678c9b5-7d86-4564-a43f-0855a249e86a}, !- Handle
  surface_13_M16_300mm_heavyweight_concrete, !- Name
  Floor,                                  !- Surface Type
  {4a885065-94ce-45d2-93b3-49fa7470e059}, !- Construction Name
  {ec7c586e-06cb-4a75-9640-822e2caaa177}, !- Space Name
  Ground,                                 !- Outside Boundary Condition
  ,                                       !- Outside Boundary Condition Object
  NoSun,                                  !- Sun Exposure
  NoWind,                                 !- Wind Exposure
  ,                                       !- View Factor to Ground
  ,                                       !- Number of Vertices
  -0.907447083161214, 3.95628785519057, 0, !- X,Y,Z Vertex 1 {m}
  21.6364635793188, -20.5389909232188, 0, !- X,Y,Z Vertex 2 {m}
  -2.98512323862046, -21.5680229265127, 0; !- X,Y,Z Vertex 3 {m}

OS:Surface,
  {4ecc17fd-d2ba-4fb6-88bb-96dde2a47e38}, !- Handle
  surface_14_M16_300mm_heavyweight_concrete, !- Name
  Floor,                                  !- Surface Type
  {4a885065-94ce-45d2-93b3-49fa7470e059}, !- Construction Name
  {ec7c586e-06cb-4a75-9640-822e2caaa177}, !- Space Name
  Ground,                                 !- Outside Boundary Condition
  ,                                       !- Outside Boundary Condition Object
  NoSun,                                  !- Sun Exposure
  NoWind,                                 !- Wind Exposure
  ,                                       !- View Factor to Ground
  ,                                       !- Number of Vertices
  -24.7102380726011, 2.70533979448517, 0, !- X,Y,Z Vertex 1 {m}
  -2.98512323862046, -21.5680229265127, 0, !- X,Y,Z Vertex 2 {m}
  -27.1326658998145, -23.1882757298533, 0; !- X,Y,Z Vertex 3 {m}

OS:Surface,
  {9ac2efda-294e-4be3-97da-e864b33c56b7}, !- Handle
  surface_15_M16_300mm_heavyweight_concrete, !- Name
  Floor,                                  !- Surface Type
  {4a885065-94ce-45d2-93b3-49fa7470e059}, !- Construction Name
  {ec7c586e-06cb-4a75-9640-822e2caaa177}, !- Space Name
  Ground,                                 !- Outside Boundary Condition
  ,                                       !- Outside Boundary Condition Object
  NoSun,                                  !- Sun Exposure
  NoWind,                                 !- Wind Exposure
  ,                                       !- View Factor to Ground
  ,                                       !- Number of Vertices
  -0.907447083161214, 3.95628785519057, 0, !- X,Y,Z Vertex 1 {m}
  -2.98512323862046, -21.5680229265127, 0, !- X,Y,Z Vertex 2 {m}
  -24.7102380726011, 2.70533979448517, 0; !- X,Y,Z Vertex 3 {m}

OS:Surface,
  {e21485b9-1d3d-491b-ae9e-9296eb6a0f8b}, !- Handle
  surface_16_generic_window_frame,        !- Name
  Wall,                                   !- Surface Type
  {87e03797-f8ca-4d9f-b5ca-0e8fd2bf4b20}, !- Construction Name
  {ec7c586e-06cb-4a75-9640-822e2caaa177}, !- Space Name
  Outdoors,                               !- Outside Boundary Condition
  ,                                       !- Outside Boundary Condition Object
  SunExposed,                             !- Sun Exposure
  WindExposed,                            !- Wind Exposure
  ,                                       !- View Factor to Ground
  ,                                       !- Number of Vertices
  -19.3865896591711, -21.5266898001009, 3.97997467278998, !- X,Y,Z Vertex 1 {m}
  -0.706271888578516, 0.113837075409517, 5.11443328133082, !- X,Y,Z Vertex 2 {m}
  -20.1638582203565, -4.40325671634277, 4.96794806839849; !- X,Y,Z Vertex 3 {m}

OS:SubSurface,
  {28ed97ca-4bb7-46b9-a6be-82110200bfe0}, !- Handle
  subsurface_16_low_iron_3mm,             !- Name
  FixedWindow,                            !- Sub Surface Type
  {ae00b9a1-70f4-4362-ab97-9c678085831a}, !- Construction Name
  {e21485b9-1d3d-491b-ae9e-9296eb6a0f8b}, !- Surface Name
  ,                                       !- Outside Boundary Condition Object
  ,                                       !- View Factor to Ground
  ,                                       !- Frame and Divider Name
  ,                                       !- Multiplier
  ,                                       !- Number of Vertices
  -19.3824019328242, -21.5176224700314, 3.98047113371791, !- X,Y,Z Vertex 1 {m}
  -0.714515418912768, 0.108183090364517, 5.11415640457272, !- X,Y,Z Vertex 2 {m}
  -20.1553759036444, -4.40854121000585, 4.96759532214393; !- X,Y,Z Vertex 3 {m}

OS:Surface,
  {58751676-081c-42d8-9be8-1eb5612a3b3a}, !- Handle
  surface_17_generic_window_frame,        !- Name
  Wall,                                   !- Surface Type
  {87e03797-f8ca-4d9f-b5ca-0e8fd2bf4b20}, !- Construction Name
  {ec7c586e-06cb-4a75-9640-822e2caaa177}, !- Space Name
  Outdoors,                               !- Outside Boundary Condition
  ,                                       !- Outside Boundary Condition Object
  SunExposed,                             !- Sun Exposure
  WindExposed,                            !- Wind Exposure
  ,                                       !- View Factor to Ground
  ,                                       !- Number of Vertices
  -0.706271888578516, 0.113837075409517, 5.11443328133082, !- X,Y,Z Vertex 1 {m}
  16.0517405910321, 21.7586010342884, 5.58455044411454, !- X,Y,Z Vertex 2 {m}
  -3.04881805726805, 18.6810098299671, 5.9819477354395; !- X,Y,Z Vertex 3 {m}

OS:SubSurface,
  {ccdebf2d-9797-4fd3-8ad0-90a65c083078}, !- Handle
  subsurface_17_low_iron_3mm,             !- Name
  FixedWindow,                            !- Sub Surface Type
  {ae00b9a1-70f4-4362-ab97-9c678085831a}, !- Construction Name
  {58751676-081c-42d8-9be8-1eb5612a3b3a}, !- Surface Name
  ,                                       !- Outside Boundary Condition Object
  ,                                       !- View Factor to Ground
  ,                                       !- Frame and Divider Name
  ,                                       !- Multiplier
  ,                                       !- Number of Vertices
  -0.70289895655113, 0.123245867764794, 5.11474626048974, !- X,Y,Z Vertex 1 {m}
  16.0435076491442, 21.7529249098086, 5.58453374800934, !- X,Y,Z Vertex 2 {m}
  -3.04072103640926, 18.6751608885019, 5.98147009860124; !- X,Y,Z Vertex 3 {m}

OS:Surface,
  {430dc75c-216f-4ef7-ba4a-459ae6d21bd7}, !- Handle
  surface_18_generic_window_frame,        !- Name
  Wall,                                   !- Surface Type