
OS:Version,
  {6232a400-8665-494f-b7d1-cd00e1376813}, !- Handle
  3.9.0;                                  !- Version Identifier

OS:Space,
  {397a7bc7-9d93-4df1-a7c3-138ee74dd92b}, !- Handle
  Main Space,                             !- Name
  ,                                       !- Space Type Name
  ,                                       !- Default Construction Set Name
  ,                                       !- Default Schedule Set Name
  ,                                       !- Direction of Relative North {deg}
  ,                                       !- X Origin {m}
  ,                                       !- Y Origin {m}
  ,                                       !- Z Origin {m}
  ,                                       !- Building Story Name
  {820ce1da-31ed-483b-b2e0-ad13125180ae}; !- Thermal Zone Name

OS:Construction,
  {cb5ead66-14d5-4698-838b-d943a7051b3a}, !- Handle
  clear_6mm,                              !- Name
  ,                                       !- Surface Rendering Name
  {ad1b3d88-e46b-49b0-8f96-7b02139ea719}; !- Layer 1

OS:WindowMaterial:Glazing,
  {ad1b3d88-e46b-49b0-8f96-7b02139ea719}, !- Handle
  clear_6mm,                              !- Name
  SpectralAverage,                        !- Optical Data Type
  ,                                       !- Window Glass Spectral Data Set Name
  0.006,                                  !- Thickness {m}
  0.775,                                  !- Solar Transmittance at Normal Incidence
  0.071,                                  !- Front Side Solar Reflectance at Normal Incidence
  0.071,                                  !- Back Side Solar Reflectance at Normal Incidence
  0.881,                                  !- Visible Transmittance at Normal Incidence
  0.08,                                   !- Front Side Visible Reflectance at Normal Incidence
  0.08,                                   !- Back Side Visible Reflectance at Normal Incidence
  0,                                      !- Infrared Transmittance at Normal Incidence
  0.84,                                   !- Front Side Infrared Hemispherical Emissivity
  0.84,                                   !- Back Side Infrared Hemispherical Emissivity
  0.9;                                    !- Conductivity {W/m-K}

OS:Construction,
  {66c64817-32cf-465b-9004-460bb9e414ae}, !- Handle
  M16_300mm_heavyweight_concrete,         !- Name
  ,                                       !- Surface Rendering Name
  {a38b9b78-605d-432a-84e5-5a82f5eed3d3}; !- Layer 1

OS:Material,
  {a38b9b78-605d-432a-84e5-5a82f5eed3d3}, !- Handle
  M16_300mm_heavyweight_concrete,         !- Name
  MediumRough,                            !- Roughness
  0.3048,                                 !- Thickness {m}
  1.95,                                   !- Conductivity {W/m-K}
  2240,                                   !- Density {kg/m3}
  900,                                    !- Specific Heat {J/kg-K}
  0.9,                                    !- Thermal Absorptance
  0.7,                                    !- Solar Absorptance
  0.7;                                    !- Visible Absorptance

OS:Construction,
  {6c9e3a45-0e50-40a2-8bae-6108e5aad022}, !- Handle
  low_iron_3mm,                           !- Name
  ,                                       !- Surface Rendering Name
  {ca83125d-aedf-4fdb-ac8a-1e066ce30c81}; !- Layer 1

OS:WindowMaterial:Glazing,
  {ca83125d-aedf-4fdb-ac8a-1e066ce30c81}, !- Handle
  low_iron_3mm,                           !- Name
  SpectralAverage,                        !- Optical Data Type
  ,                                       !- Window Glass Spectral Data Set Name
  0.003,                                  !- Thickness {m}
  0.899,                                  !- Solar Transmittance at Normal Incidence
  0.079,                                  !- Front Side Solar Reflectance at Normal Incidence
  0.079,                                  !- Back Side Solar Reflectance at Normal Incidence
  0.913,                                  !- Visible Transmittance at Normal Incidence
  0.082,                                  !- Front Side Visible Reflectance at Normal Incidence
  0.082,                                  !- Back Side Visible Reflectance at Normal Incidence
  0,                                      !- Infrared Transmittance at Normal Incidence
  0.84,                                   !- Front Side Infrared Hemispherical Emissivity
  0.84,                                   !- Back Side Infrared Hemispherical Emissivity
  0.9;                                    !- Conductivity {W/m-K}

OS:Construction,
  {38071891-9ea7-4175-95bf-762599c4d56f}, !- Handle
  generic_window_frame,                   !- Name
  ,                                       !- Surface Rendering Name
  {e3029bda-0291-404d-803c-40f9f467ebc7}; !- Layer 1

OS:Material,
  {e3029bda-0291-404d-803c-40f9f467ebc7}, !- Handle
  generic_window_frame,                   !- Name
  MediumSmooth,                           !- Roughness
  0.1,                                    !- Thickness {m}
  0.17,                                   !- Conductivity {W/m-K}
  700,                                    !- Density {kg/m3}
  1000,                                   !- Specific Heat {J/kg-K}
  0.9,                                    !- Thermal Absorptance
  0.7,                                    !- Solar Absorptance
  0.7;                                    !- Visible Absorptance

OS:Surface,
  {71b91480-15e6-4020-b0e6-e17e088e288c}, !- Handle
  surface_0_generic_window_frame,         !- Name
  Wall,                                   !- Surface Type
  {38071891-9ea7-4175-95bf-762599c4d56f}, !- Construction Name
  {397a7bc7-9d93-4df1-a7c3-138ee74dd92b}, !- Space Name
  Outdoors,                               !- Outside Boundary Condition
  ,                                       !- Outside Boundary Condition Object
  SunExposed,                             !- Sun Exposure
  WindExposed,                            !- Wind Exposure
  ,                                       !- View Factor to Ground
  ,                                       !- Number of Vertices
  -24.0534224190221, -21.0669793783288, 4.71357600490892, !- X,Y,Z Vertex 1 {m}
  -26.4968072910803, 0.75097609015558, 5.99043053323527, !- X,Y,Z Vertex 2 {m}
  -24.0194264892424, -20.8199343697608, 2.35200935634912; !- X,Y,Z Vertex 3 {m}

OS:SubSurface,
  {a46eb8ba-8365-4789-9dd4-3cd3973ea70c}, !- Handle
  subsurface_0_low_iron_3mm,              !- Name
  FixedWindow,                            !- Sub Surface Type
  {6c9e3a45-0e50-40a2-8bae-6108e5aad022}, !- Construction Name
  {71b91480-15e6-4020-b0e6-e17e088e288c}, !- Surface Name
  ,                                       !- Outside Boundary Condition Object
  ,                                       !- View Factor to Ground
  ,                                       !- Frame and Divider Name
  ,                                       !- Multiplier
  ,                                       !- Number of Vertices
  -24.0545066233634, -21.0570503175244, 4.7130878937662, !- X,Y,Z Vertex 1 {m}
  -26.4956874788769, 0.741102142730107, 5.98931197037689, !- X,Y,Z Vertex 2 {m}
  -24.0205529796793, -20.8103694445918, 2.35470068052278; !- X,Y,Z Vertex 3 {m}

OS:Surface,
  {0b25e8ac-8118-43eb-9782-6e5256802233}, !- Handle
  surface_1_generic_window_frame,         !- Name
  Wall,                                   !- Surface Type
  {38071891-9ea7-4175-95bf-762599c4d56f}, !- Construction Name
  {397a7bc7-9d93-4df1-a7c3-138ee74dd92b}, !- Space Name
  Outdoors,                               !- Outside Boundary Condition
  ,                                       !- Outside Boundary Condition Object
  SunExposed,                             !- Sun Exposure
  WindExposed,                            !- Wind Exposure
  ,                                       !- View Factor to Ground
  ,                                       !- Number of Vertices
  -26.4968072910803, 0.75097609015558, 5.99043053323527, !- X,Y,Z Vertex 1 {m}
  -29.0820225747708, 21.6863992827745, 6.87145419167963, !- X,Y,Z Vertex 2 {m}
  -26.6879483164644, 0.949109837477954, 3.47761168822852; !- X,Y,Z Vertex 3 {m}

OS:SubSurface,
  {8b7dee0b-210c-4859-abe9-d5293eee9cf1}, !- Handle
  subsurface_1_low_iron_3mm,              !- Name
  FixedWindow,                            !- Sub Surface Type
  {6c9e3a45-0e50-40a2-8bae-6108e5aad022}, !- Construction Name
  {0b25e8ac-8118-43eb-9782-6e5256802233}, !- Surface Name
  ,                                       !- Outside Boundary Condition Object
  ,                                       !- View Factor to Ground
  ,                                       !- Frame and Divider Name
  ,                                       !- Multiplier
  ,                                       !- Number of Vertices
  -26.498106018428, 0.760861971251859, 5.98966721008841, !- X,Y,Z Vertex 1 {m}
  -29.0808422647852, 21.6765210223445, 6.87044086092725, !- X,Y,Z Vertex 2 {m}
  -26.6889736594144, 0.958669672600814, 3.48036091071109; !- X,Y,Z Vertex 3 {m}

OS:Surface,
  {083c9e25-cc15-4098-89f9-9ae7dc3aaed0}, !- Handle
  surface_2_generic_window_frame,         !- Name
  Wall,                                   !- Surface Type
  {38071891-9ea7-4175-95bf-762599c4d56f}, !- Construction Name
  {397a7bc7-9d93-4df1-a7c3-138ee74dd92b}, !- Space Name
  Outdoors,                               !- Outside Boundary Condition
  ,                                       !- Outside Boundary Condition Object
  SunExposed,                             !- Sun Exposure
  WindExposed,                            !- Wind Exposure
  ,                                       !- View Factor to Ground
  ,                                       !- Number of Vertices
  -24.0194264892424, -20.8199343697608, 2.35200935634912, !- X,Y,Z Vertex 1 {m}
  -26.6879483164644, 0.949109837477954, 3.47761168822852, !- X,Y,Z Vertex 2 {m}
  -24.0499441831107, -20.8311595087678, 0; !- X,Y,Z Vertex 3 {m}

OS:SubSurface,
  {0ed8c2f6-3c00-40d8-b61e-a17db8a984ac}, !- Handle
  subsurface_2_low_iron_3mm,              !- Name
  FixedWindow,                            !- Sub Surface Type
  {6c9e3a45-0e50-40a2-8bae-6108e5aad022}, !- Construction Name
  {083c9e25-cc15-4098-89f9-9ae7dc3aaed0}, !- Surface Name
  ,                                       !- Outside Boundary Condition Object
  ,                                       !- View Factor to Ground
  ,                                       !- Frame and Divider Name
  ,                                       !- Multiplier
  ,                                       !- Number of Vertices
  -24.0206556238107, -20.8100259236865, 2.35145085423874, !- X,Y,Z Vertex 1 {m}
  -26.6867453570319, 0.939237454320696, 3.47656816563647, !- X,Y,Z Vertex 2 {m}
  -24.0510924515042, -20.8215631081933, 0.00256721166046239; !- X,Y,Z Vertex 3 {m}

OS:Surface,
  {4a7e4aa4-5c76-436b-bd7d-28542cb02bd0}, !- Handle
  surface_3_generic_window_frame,         !- Name
  Wall,                                   !- Surface Type
  {38071891-9ea7-4175-95bf-762599c4d56f}, !- Construction Name
  {397a7bc7-9d93-4df1-a7c3-138ee74dd92b}, !- Space Name
  Outdoors,                               !- Outside Boundary Condition
  ,                                       !- Outside Boundary Condition Object
  SunExposed,                             !- Sun Exposure
  WindExposed,                            !- Wind Exposure
  ,                                       !- View Factor to Ground
  ,                                       !- Number of Vertices
  -26.4968072910803, 0.75097609015558, 5.99043053323527, !- X,Y,Z Vertex 1 {m}
  -26.6879483164644, 0.949109837477954, 3.47761168822852, !- X,Y,Z Vertex 2 {m}
  -24.0194264892424, -20.8199343697608, 2.35200935634912; !- X,Y,Z Vertex 3 {m}

OS:SubSurface,
  {5077421f-8f3e-4618-bb39-decc5f388796}, !- Handle
  subsurface_3_low_iron_3mm,              !- Name
  FixedWindow,                            !- Sub Surface Type
  {6c9e3a45-0e50-40a2-8bae-6108e5aad022}, !- Construction Name
  {4a7e4aa4-5c76-436b-bd7d-28542cb02bd0}, !- Surface Name
  ,                                       !- Outside Boundary Condition Object
  ,                                       !- View Factor to Ground
  ,                                       !- Frame and Divider Name
  ,                                       !- Multiplier
  ,                                       !- Number of Vertices
  -26.4957847106342, 0.741416557611926, 5.98767923049329, !- X,Y,Z Vertex 1 {m}
  -26.6866599433719, 0.939212894218347, 3.478236675341, !- X,Y,Z Vertex 2 {m}
  -24.0205985799619, -20.8100627568857, 2.35309446583222; !- X,Y,Z Vertex 3 {m}

OS:Surface,
  {e9243a5a-d57b-4482-a104-4b6002bdca92}, !- Handle
  surface_4_generic_window_frame,         !- Name
  Wall,                                   !- Surface Type
  {38071891-9ea7-4175-95bf-762599c4d56f}, !- Construction Name
  {397a7bc7-9d93-4df1-a7c3-138ee74dd92b}, !- Space Name
  Outdoors,                               !- Outside Boundary Condition
  ,                                       !- Outside Boundary Condition Object
  SunExposed,                             !- Sun Exposure
  WindExposed,                            !- Wind Exposure
  ,                                       !- View Factor to Ground
  ,                                       !- Number of Vertices
  20.2063989025065, -25.2033193964239, 0, !- X,Y,Z Vertex 1 {m}
  -1.89583239369156, -23.0853684744254, 2.27138450356267, !- X,Y,Z Vertex 2 {m}
  -1.96393971485861, -22.931841733006, 0; !- X,Y,Z Vertex 3 {m}

OS:SubSurface,
  {41894e5d-7186-4e3c-ba10-2b7618e3b463}, !- Handle
  subsurface_4_low_iron_3mm,              !- Name
  FixedWindow,                            !- Sub Surface Type
  {6c9e3a45-0e50-40a2-8bae-6108e5aad022}, !- Construction Name
  {e9243a5a-d57b-4482-a104-4b6002bdca92}, !- Surface Name
  ,                                       !- Outside Boundary Condition Object
  ,                                       !- View Factor to Ground
  ,                                       !- Frame and Divider Name
  ,                                       !- Multiplier
  ,                                       !- Number of Vertices
  20.1964606361028, -25.2023340614698, 0.000509878336532942, !- X,Y,Z Vertex 1 {m}
  -1.88607550364472, -23.0862383374958, 2.26937292834593, !- X,Y,Z Vertex 2 {m}
  -1.95404949554537, -22.9329202177825, 0.00101016460174566; !- X,Y,Z Vertex 3 {m}

OS:Surface,
  {34a08143-1e33-443d-a2d1-d8f1d086601c}, !- Handle
  surface_5_generic_window_frame,         !- Name
  Wall,                                   !- Surface Type
  {38071891-9ea7-4175-95bf-762599c4d56f}, !- Construction Name
  {397a7bc7-9d93-4df1-a7c3-138ee74dd92b}, !- Space Name
  Outdoors,                               !- Outside Boundary Condition
  ,                                       !- Outside Boundary Condition Object
  SunExposed,                             !- Sun Exposure
  WindExposed,                            !- Wind Exposure
  ,                                       !- View Factor to Ground
  ,                                       !- Number of Vertices
  -1.89583239369156, -23.0853684744254, 2.27138450356267, !- X,Y,Z Vertex 1 {m}
  -24.0534224190221, -21.0669793783288, 4.71357600490892, !- X,Y,Z Vertex 2 {m}
  -24.0194264892424, -20.8199343697608, 2.35200935634912; !- X,Y,Z Vertex 3 {m}

OS:SubSurface,
  {095c22a9-b4f4-4e7f-8b8e-729f57171df5}, !- Handle
  subsurface_5_clear_6mm,                 !- Name
  FixedWindow,                            !- Sub Surface Type
  {cb5ead66-14d5-4698-838b-d943a7051b3a}, !- Construction Name
  {34a08143-1e33-443d-a2d1-d8f1d086601c}, !- Surface Name
  ,                                       !- Outside Boundary Condition Object
  ,                                       !- View Factor to Ground
  ,                                       !- Frame and Divider Name
  ,                                       !- Multiplier
  ,                                       !- Number of Vertices
  -1.90576995940914, -23.0844071005275, 2.27195067300484, !- X,Y,Z Vertex 1 {m}
  -24.0436783917791, -21.0677571517192, 4.71146673924507, !- X,Y,Z Vertex 2 {m}
  -24.0095424371136, -20.821058585527, 2.35302997009877; !- X,Y,Z Vertex 3 {m}

OS:Surface,
  {adf635d0-d31f-4a7c-8680-5126be52d7ab}, !- Handle
  surface_6_generic_window_frame,         !- Name
  Wall,                                   !- Surface Type
  {38071891-9ea7-4175-95bf-762599c4d56f}, !- Construction Name
  {397a7bc7-9d93-4df1-a7c3-138ee74dd92b}, !- Space Name
  Outdoors,                               !- Outside Boundary Condition
  ,                                       !- Outside Boundary Condition Object
  SunExposed,                             !- Sun Exposure
  WindExposed,                            !- Wind Exposure
  ,                                       !- View Factor to Ground
  ,                                       !- Number of Vertices
  -1.96393971485861, -22.931841733006, 0, !- X,Y,Z Vertex 1 {m}
  -24.0194264892424, -20.8199343697608, 2.35200935634912, !- X,Y,Z Vertex 2 {m}
  -24.0499441831107, -20.8311595087678, 0; !- X,Y,Z Vertex 3 {m}

OS:SubSurface,
  {8b17f594-10b6-4b17-833e-49f6facbb1fe}, !- Handle
  subsurface_6_low_iron_3mm,              !- Name
  FixedWindow,                            !- Sub Surface Type
  {6c9e3a45-0e50-40a2-8bae-6108e5aad022}, !- Construction Name
  {adf635d0-d31f-4a7c-8680-5126be52d7ab}, !- Surface Name
  ,                                       !- Outside Boundary Condition Object
  ,                                       !- View Factor to Ground
  ,                                       !- Frame and Divider Name
  ,                                       !- Multiplier
  ,                                       !- Number of Vertices
  -1.97388051115388, -22.930893045189, 0.000529679565366433, !- X,Y,Z Vertex 1 {m}
  -24.0096902137452, -20.8208729137779, 2.34992991542172, !- X,Y,Z Vertex 2 {m}
  -24.0400438482918, -20.8320948422973, 0.00105286355396388; !- X,Y,Z Vertex 3 {m}

OS:Surface,
  {69e9966e-bf7e-4158-99c4-b26d3c0e8112}, !- Handle
  surface_7_generic_window_frame,         !- Name
  Wall,                                   !- Surface Type
  {38071891-9ea7-4175-95bf-762599c4d56f}, !- Construction Name
  {397a7bc7-9d93-4df1-a7c3-138ee74dd92b}, !- Space Name
  Outdoors,                               !- Outside Boundary Condition
  ,                                       !- Outside Boundary Condition Object
  SunExposed,                             !- Sun Exposure
  WindExposed,                            !- Wind Exposure
  ,                                       !- View Factor to Ground
  ,                                       !- Number of Vertices
  -1.89583239369156, -23.0853684744254, 2.27138450356267, !- X,Y,Z Vertex 1 {m}
  -24.0194264892424, -20.8199343697608, 2.35200935634912, !- X,Y,Z Vertex 2 {m}
  -1.96393971485861, -22.931841733006, 0; !- X,Y,Z Vertex 3 {m}

OS:SubSurface,
  {f69ce1f3-9fdc-4766-996e-a4b47e30b533}, !- Handle
  subsurface_7_low_iron_3mm,              !- Name
  FixedWindow,                            !- Sub Surface Type
  {6c9e3a45-0e50-40a2-8bae-6108e5aad022}, !- Construction Name
  {69e9966e-bf7e-4158-99c4-b26d3c0e8112}, !- Surface Name
  ,                                       !- Outside Boundary Condition Object
  ,                                       !- View Factor to Ground
  ,                                       !- Frame and Divider Name
  ,                                       !- Multiplier
  ,                                       !- Number of Vertices
  -1.90572598050473, -23.0842900443096, 2.27040781095201, !- X,Y,Z Vertex 1 {m}
  -24.0094901223448, -20.8209188825665, 2.35146222984595, !- X,Y,Z Vertex 2 {m}
  -1.97368874552547, -22.9309734024812, 0.00204997637945693; !- X,Y,Z Vertex 3 {m}

OS:Surface,
  {78751b24-6844-43e9-910b-deb1eb1219db}, !- Handle
  surface_8_generic_window_frame,         !- Name
  Wall,                                   !- Surface Type
  {38071891-9ea7-4175-95bf-762599c4d56f}, !- Construction Name
  {397a7bc7-9d93-4df1-a7c3-138ee74dd92b}, !- Space Name
  Outdoors,                               !- Outside Boundary Condition
  ,                                       !- Outside Boundary Condition Object
  SunExposed,                             !- Sun Exposure
  WindExposed,                            !- Wind Exposure
  ,                                       !- View Factor to Ground
  ,                                       !- Number of Vertices
  -24.0499441831107, -20.8311595087678, 0, !- X,Y,Z Vertex 1 {m}
  -26.6879483164644, 0.949109837477954, 3.47761168822852, !- X,Y,Z Vertex 2 {m}
  -27.2542980434574, 1.20449514668394, 0; !- X,Y,Z Vertex 3 {m}

OS:SubSurface,
  {1fcc0bc6-865c-45be-a9ac-545b0691ef77}, !- Handle
  subsurface_8_clear_6mm,                 !- Name
  FixedWindow,                            !- Sub Surface Type
  {cb5ead66-14d5-4698-838b-d943a7051b3a}, !- Construction Name
  {78751b24-6844-43e9-910b-deb1eb1219db}, !- Surface Name
  ,                                       !- Outside Boundary Condition Object
  ,                                       !- View Factor to Ground
  ,                                       !- Frame and Divider Name
  ,                                       !- Multiplier
  ,                                       !- Number of Vertices
  -24.0512618011939, -20.8212777702882, 0.000784300457417037, !- X,Y,Z Vertex 1 {m}
  -26.6870363104329, 0.939633921027789, 3.47454978482899, !- X,Y,Z Vertex 2 {m}
  -27.2526495489324, 1.19474984146791, 0.00152035918370623; !- X,Y,Z Vertex 3 {m}

OS:Surface,
  {238024a6-07f5-424f-83e7-af2a8dcff655}, !- Handle
  surface_9_generic_window_frame,         !- Name
  Wall,                                   !- Surface Type
  {38071891-9ea7-4175-95bf-762599c4d56f}, !- Construction Name
  {397a7bc7-9d93-4df1-a7c3-138ee74dd92b}, !- Space Name
  Outdoors,                               !- Outside Boundary Condition
  ,                                       !- Outside Boundary Condition Object
  SunExposed,                             !- Sun Exposure
  WindExposed,                            !- Wind Exposure
  ,                                       !- View Factor to Ground
  ,                                       !- Number of Vertices
  -26.6879483164644, 0.949109837477954, 3.47761168822852, !- X,Y,Z Vertex 1 {m}
  -29.0820225747708, 21.6863992827745, 6.87145419167963, !- X,Y,Z Vertex 2 {m}
  -30.0086617394165, 22.9895092231158, 3.69164690376908; !- X,Y,Z Vertex 3 {m}

OS:SubSurface,
  {84fbdd51-de46-4497-8331-70a39e63a0f0}, !- Handle
  subsurface_9_clear_6mm,                 !- Name
  FixedWindow,                            !- Sub Surface Type
  {cb5ead66-14d5-4698-838b-d943a7051b3a}, !- Construction Name
  {238024a6-07f5-424f-83e7-af2a8dcff655}, !- Surface Name
  ,                                       !- Outside Boundary Condition Object
  ,                                       !- View Factor to Ground
  ,                                       !- Frame and Divider Name
  ,                                       !- Multiplier
  ,                                       !- Number of Vertices
  -26.6892678768381, 0.958987324833436, 3.47844475723069, !- X,Y,Z Vertex 1 {m}
  -29.081309128588, 21.6769506596333, 6.86825817614804, !- X,Y,Z Vertex 2 {m}
  -30.006885451998, 22.9797467225782, 3.69288722076883; !- X,Y,Z Vertex 3 {m}

OS:Surface,
  {b4fcf300-6b99-447e-bf21-981225889a01}, !- Handle
  surface_10_generic_window_frame,        !- Name
  Wall,                                   !- Surface Type
  {38071891-9ea7-4175-95bf-762599c4d56f}, !- Construction Name
  {397a7bc7-9d93-4df1-a7c3-138ee74dd92b}, !- Space Name
  Outdoors,                               !- Outside Boundary Condition
  ,                                       !- Outside Boundary Condition Object
  SunExposed,                             !- Sun Exposure
  WindExposed,                            !- Wind Exposure
  ,                                       !- View Factor to Ground
  ,                                       !- Number of Vertices
  -27.2542980434574, 1.20449514668394, 0, !- X,Y,Z Vertex 1 {m}
  -30.0086617394165, 22.9895092231158, 3.69164690376908, !- X,Y,Z Vertex 2 {m}
  -30.9352979961413, 23.2666360008949, 0; !- X,Y,Z Vertex 3 {m}

OS:SubSurface,
  {e7334b8f-c267-4362-a4d6-b250c484351d}, !- Handle
  subsurface_10_clear_6mm,                !- Name
  FixedWindow,                            !- Sub Surface Type
  {cb5ead66-14d5-4698-838b-d943a7051b3a}, !- Construction Name
  {b4fcf300-6b99-447e-bf21-981225889a01}, !- Surface Name
  ,                                       !- Outside Boundary Condition Object
  ,                                       !- View Factor to Ground
  ,                                       !- Frame and Divider Name
  ,                                       !- Multiplier
  ,                                       !- Number of Vertices
  -27.2557451556475, 1.21435500167677, 0.000830136030797528, !- X,Y,Z Vertex 1 {m}
  -30.0078605689777, 22.9800814041018, 3.68841049301528, !- X,Y,Z Vertex 2 {m}
  -30.9333038929261, 23.2569679621463, 0.00159767929279087; !- X,Y,Z Vertex 3 {m}

OS:Surface,
  {87623838-2657-4908-bc5a-37635fc13e5e}, !- Handle
  surface_11_generic_window_frame,        !- Name
  Wall,                                   !- Surface Type
  {38071891-9ea7-4175-95bf-762599c4d56f}, !- Construction Name
  {397a7bc7-9d93-4df1-a7c3-138ee74dd92b}, !- Space Name
  Outdoors,                               !- Outside Boundary Condition
  ,                                       !- Outside Boundary Condition Object
  SunExposed,                             !- Sun Exposure
  WindExposed,                            !- Wind Exposure
  ,                                       !- View Factor to Ground
  ,                                       !- Number of Vertices
  -26.6879483164644, 0.949109837477954, 3.47761168822852, !- X,Y,Z Vertex 1 {m}
  -30.0086617394165, 22.9895092231158, 3.69164690376908, !- X,Y,Z Vertex 2 {m}
  -27.2542980434574, 1.20449514668394, 0; !- X,Y,Z Vertex 3 {m}

OS:SubSurface,
  {6253badd-70d3-4443-b936-b84f97c830e6}, !- Handle
  subsurface_11_clear_6mm,                !- Name
  FixedWindow,                            !- Sub Surface Type
  {cb5ead66-14d5-4698-838b-d943a7051b3a}, !- Construction Name
  {87623838-2657-4908-bc5a-37635fc13e5e}, !- Surface Name
  ,                                       !- Outside Boundary Condition Object
  ,                                       !- View Factor to Ground
  ,                                       !- Frame and Divider Name
  ,                                       !- Multiplier
  ,                                       !- Number of Vertices
  -26.689648234457, 0.958860387983692, 3.47618443784636, !- X,Y,Z Vertex 1 {m}
  -30.0072939878904, 22.9796423070306, 3.69076757292693, !- X,Y,Z Vertex 2 {m}
  -27.2552578181796, 1.21393914190673, 0.00314480312808922; !- X,Y,Z Vertex 3 {m}

OS:Surface,
  {64e5d2dc-a478-4c72-bead-e827da31d4ec}, !- Handle
  surface_12_M16_300mm_heavyweight_concrete, !- Name
  Floor,                                  !- Surface Type
  {66c64817-32cf-465b-9004-460bb9e414ae}, !- Construction Name
  {397a7bc7-9d93-4df1-a7c3-138ee74dd92b}, !- Space Name
  Ground,                                 !- Outside Boundary Condition
  ,                                       !- Outside Boundary Condition Object
  NoSun,                                  !- Sun Exposure
  NoWind,                                 !- Wind Exposure
  ,                                       !- View Factor to Ground
  ,                                       !- Number of Vertices
  -30.9352979961413, 23.2666360008949, 0, !- X,Y,Z Vertex 1 {m}
  -5.18198693589744, -1.16925144412201, 0, !- X,Y,Z Vertex 2 {m}
  -27.2542980434574, 1.20449514668394, 0; !- X,Y,Z Vertex 3 {m}

OS:Surface,
  {4d1f4eae-97fd-4460-afe6-74cb68502ffc}, !- Handle
  surface_13_M16_300mm_heavyweight_concrete, !- Name
  Floor,                                  !- Surface Type
  {66c64817-32cf-465b-9004-460bb9e414ae}, !- Construction Name
  {397a7bc7-9d93-4df1-a7c3-138ee74dd92b}, !- Space Name
  Ground,                                 !- Outside Boundary Condition
  ,                                       !- Outside Boundary Condition Object
  NoSun,                                  !- Sun Exposure
  NoWind,                                 !- Wind Exposure
  ,                                       !- View Factor to Ground
  ,                                       !- Number of Vertices
  -5.18198693589744, -1.16925144412201, 0, !- X,Y,Z Vertex 1 {m}
  20.2063989025065, -25.2033193964239, 0, !- X,Y,Z Vertex 2 {m}
  -1.96393971485861, -22.931841733006, 0; !- X,Y,Z Vertex 3 {m}

OS:Surface,
  {ea0b80cb-f174-4a20-b1b2-b79e039089c4}, !- Handle
  surface_14_M16_300mm_heavyweight_concrete, !- Name
  Floor,                                  !- Surface Type
  {66c64817-32cf-465b-9004-460bb9e414ae}, !- Construction Name
  {397a7bc7-9d93-4df1-a7c3-138ee74dd92b}, !- Space Name
  Ground,                                 !- Outside Boundary Condition
  ,                                       !- Outside Boundary Condition Object
  NoSun,                                  !- Sun Exposure
  NoWind,                                 !- Wind Exposure
  ,                                       !- View Factor to Ground
  ,                                       !- Number of Vertices
  -27.2542980434574, 1.20449514668394, 0, !- X,Y,Z Vertex 1 {m}
  -1.96393971485861, -22.931841733006, 0, !- X,Y,Z Vertex 2 {m}
  -24.0499441831107, -20.8311595087678, 0; !- X,Y,Z Vertex 3 {m}

OS:Surface,
  {ec1c42cf-8848-44a6-a853-1afe83c504bb}, !- Handle
  surface_15_M16_300mm_heavyweight_concrete, !- Name
  Floor,                                  !- Surface Type
  {66c64817-32cf-465b-9004-460bb9e414ae}, !- Construction Name
  {397a7bc7-9d93-4df1-a7c3-138ee74dd92b}, !- Space Name
  Ground,                                 !- Outside Boundary Condition