
Version,
  24.2;                                   !- Version Identifier

Timestep,
  6;                                      !- Number of Timesteps per Hour

LifeCycleCost:Parameters,
  Life Cycle Cost Parameters,             !- Name
  EndOfYear,                              !- Discounting Convention
  ConstantDollar,                         !- Inflation Approach
  0.03,                                   !- Real Discount Rate
  ,                                       !- Nominal Discount Rate
  ,                                       !- Inflation
  ,                                       !- Base Date Month
  2011,                                   !- Base Date Year
  ,                                       !- Service Date Month
  2011,                                   !- Service Date Year
  25,                                     !- Length of Study Period in Years
  ,                                       !- Tax rate
  None;                                   !- Depreciation Method

LifeCycleCost:UsePriceEscalation,
  U.S. Avg  Commercial-Electricity,       !- Name
  Electricity,                            !- Resource
  2011,                                   !- Escalation Start Year
  January,                                !- Escalation Start Month
  0.9838,                                 !- Year Escalation 1
  0.9730,                                 !- Year Escalation 2
  0.9632,                                 !- Year Escalation 3
  0.9611,                                 !- Year Escalation 4
  0.9571,                                 !- Year Escalation 5
  0.9553,                                 !- Year Escalation 6
  0.9539,                                 !- Year Escalation 7
  0.9521,                                 !- Year Escalation 8
  0.9546,                                 !- Year Escalation 9
  0.9550,                                 !- Year Escalation 10
  0.9553,                                 !- Year Escalation 11
  0.9564,                                 !- Year Escalation 12
  0.9575,                                 !- Year Escalation 13
  0.9596,                                 !- Year Escalation 14
  0.9618,                                 !- Year Escalation 15
  0.9614,                                 !- Year Escalation 16
  0.9618,                                 !- Year Escalation 17
  0.9618,                                 !- Year Escalation 18
  0.9593,                                 !- Year Escalation 19
  0.9589,                                 !- Year Escalation 20
  0.9607,                                 !- Year Escalation 21
  0.9625,                                 !- Year Escalation 22
  0.9650,                                 !- Year Escalation 23
  0.9708,                                 !- Year Escalation 24
  0.9751,                                 !- Year Escalation 25
  0.9762,                                 !- Year Escalation 26
  0.9766,                                 !- Year Escalation 27
  0.9766,                                 !- Year Escalation 28
  0.9769,                                 !- Year Escalation 29
  0.9773;                                 !- Year Escalation 30

LifeCycleCost:UsePriceEscalation,
  U.S. Avg  Commercial-Distillate Oil,    !- Name
  FuelOilNo1,                             !- Resource
  2011,                                   !- Escalation Start Year
  January,                                !- Escalation Start Month
  0.9714,                                 !- Year Escalation 1
  0.9730,                                 !- Year Escalation 2
  0.9942,                                 !- Year Escalation 3
  1.0164,                                 !- Year Escalation 4
  1.0541,                                 !- Year Escalation 5
  1.0928,                                 !- Year Escalation 6
  1.1267,                                 !- Year Escalation 7
  1.1580,                                 !- Year Escalation 8
  1.1792,                                 !- Year Escalation 9
  1.1967,                                 !- Year Escalation 10
  1.2200,                                 !- Year Escalation 11
  1.2333,                                 !- Year Escalation 12
  1.2566,                                 !- Year Escalation 13
  1.2709,                                 !- Year Escalation 14
  1.2826,                                 !- Year Escalation 15
  1.2985,                                 !- Year Escalation 16
  1.3102,                                 !- Year Escalation 17
  1.3250,                                 !- Year Escalation 18
  1.3261,                                 !- Year Escalation 19
  1.3282,                                 !- Year Escalation 20
  1.3324,                                 !- Year Escalation 21
  1.3356,                                 !- Year Escalation 22
  1.3431,                                 !- Year Escalation 23
  1.3510,                                 !- Year Escalation 24
  1.3568,                                 !- Year Escalation 25
  1.3606,                                 !- Year Escalation 26
  1.3637,                                 !- Year Escalation 27
  1.3674,                                 !- Year Escalation 28
  1.3706,                                 !- Year Escalation 29
  1.3743;                                 !- Year Escalation 30

LifeCycleCost:UsePriceEscalation,
  U.S. Avg  Commercial-Residual Oil,      !- Name
  FuelOilNo2,                             !- Resource
  2011,                                   !- Escalation Start Year
  January,                                !- Escalation Start Month
  0.8469,                                 !- Year Escalation 1
  0.8257,                                 !- Year Escalation 2
  0.8681,                                 !- Year Escalation 3
  0.8988,                                 !- Year Escalation 4
  0.9289,                                 !- Year Escalation 5
  0.9604,                                 !- Year Escalation 6
  0.9897,                                 !- Year Escalation 7
  1.0075,                                 !- Year Escalation 8
  1.0314,                                 !- Year Escalation 9
  1.0554,                                 !- Year Escalation 10
  1.0861,                                 !- Year Escalation 11
  1.1278,                                 !- Year Escalation 12
  1.1497,                                 !- Year Escalation 13
  1.1620,                                 !- Year Escalation 14
  1.1743,                                 !- Year Escalation 15
  1.1852,                                 !- Year Escalation 16
  1.1948,                                 !- Year Escalation 17
  1.2037,                                 !- Year Escalation 18
  1.2071,                                 !- Year Escalation 19
  1.2119,                                 !- Year Escalation 20
  1.2139,                                 !- Year Escalation 21
  1.2194,                                 !- Year Escalation 22
  1.2276,                                 !- Year Escalation 23
  1.2365,                                 !- Year Escalation 24
  1.2420,                                 !- Year Escalation 25
  1.2461,                                 !- Year Escalation 26
  1.2509,                                 !- Year Escalation 27
  1.2550,                                 !- Year Escalation 28
  1.2591,                                 !- Year Escalation 29
  1.2638;                                 !- Year Escalation 30

LifeCycleCost:UsePriceEscalation,
  U.S. Avg  Commercial-Natural gas,       !- Name
  NaturalGas,                             !- Resource
  2011,                                   !- Escalation Start Year
  January,                                !- Escalation Start Month
  0.9823,                                 !- Year Escalation 1
  0.9557,                                 !- Year Escalation 2
  0.9279,                                 !- Year Escalation 3
  0.9257,                                 !- Year Escalation 4
  0.9346,                                 !- Year Escalation 5
  0.9412,                                 !- Year Escalation 6
  0.9512,                                 !- Year Escalation 7
  0.9645,                                 !- Year Escalation 8
  0.9856,                                 !- Year Escalation 9
  1.0067,                                 !- Year Escalation 10
  1.0222,                                 !- Year Escalation 11
  1.0410,                                 !- Year Escalation 12
  1.0610,                                 !- Year Escalation 13
  1.0787,                                 !- Year Escalation 14
  1.0942,                                 !- Year Escalation 15
  1.1098,                                 !- Year Escalation 16
  1.1220,                                 !- Year Escalation 17
  1.1308,                                 !- Year Escalation 18
  1.1386,                                 !- Year Escalation 19
  1.1486,                                 !- Year Escalation 20
  1.1619,                                 !- Year Escalation 21
  1.1763,                                 !- Year Escalation 22
  1.1918,                                 !- Year Escalation 23
  1.2118,                                 !- Year Escalation 24
  1.2284,                                 !- Year Escalation 25
  1.2439,                                 !- Year Escalation 26
  1.2605,                                 !- Year Escalation 27
  1.2772,                                 !- Year Escalation 28
  1.2938,                                 !- Year Escalation 29
  1.3115;                                 !- Year Escalation 30

LifeCycleCost:UsePriceEscalation,
  U.S. Avg  Commercial-Coal,              !- Name
  Coal,                                   !- Resource
  2011,                                   !- Escalation Start Year
  January,                                !- Escalation Start Month
  0.9970,                                 !- Year Escalation 1
  1.0089,                                 !- Year Escalation 2
  1.0089,                                 !- Year Escalation 3
  0.9941,                                 !- Year Escalation 4
  0.9941,                                 !- Year Escalation 5
  1.0000,                                 !- Year Escalation 6
  1.0030,                                 !- Year Escalation 7
  1.0059,                                 !- Year Escalation 8
  1.0089,                                 !- Year Escalation 9
  1.0119,                                 !- Year Escalation 10
  1.0148,                                 !- Year Escalation 11
  1.0178,                                 !- Year Escalation 12
  1.0208,                                 !- Year Escalation 13
  1.0267,                                 !- Year Escalation 14
  1.0297,                                 !- Year Escalation 15
  1.0356,                                 !- Year Escalation 16
  1.0415,                                 !- Year Escalation 17
  1.0534,                                 !- Year Escalation 18
  1.0564,                                 !- Year Escalation 19
  1.0593,                                 !- Year Escalation 20
  1.0653,                                 !- Year Escalation 21
  1.0712,                                 !- Year Escalation 22
  1.0742,                                 !- Year Escalation 23
  1.0801,                                 !- Year Escalation 24
  1.0831,                                 !- Year Escalation 25
  1.0831,                                 !- Year Escalation 26
  1.0861,                                 !- Year Escalation 27
  1.0890,                                 !- Year Escalation 28
  1.0920,                                 !- Year Escalation 29
  1.0950;                                 !- Year Escalation 30

Building,
  Building 1,                             !- Name
  ,                                       !- North Axis {deg}
  ,                                       !- Terrain
  ,                                       !- Loads Convergence Tolerance Value {W}
  ,                                       !- Temperature Convergence Tolerance Value {deltaC}
  FullExterior,                           !- Solar Distribution
  ,                                       !- Maximum Number of Warmup Days
  ;                                       !- Minimum Number of Warmup Days

Zone,
  Main Zone,                              !- Name
  ,                                       !- Direction of Relative North {deg}
  0,                                      !- X Origin {m}
  0,                                      !- Y Origin {m}
  0,                                      !- Z Origin {m}
  ,                                       !- Type
  1,                                      !- Multiplier
  ,                                       !- Ceiling Height {m}
  ,                                       !- Volume {m3}
  ,                                       !- Floor Area {m2}
  ,                                       !- Zone Inside Convection Algorithm
  ,                                       !- Zone Outside Convection Algorithm
  Yes;                                    !- Part of Total Floor Area

Space,
  Main Space,                             !- Name
  Main Zone,                              !- Zone Name
  ,                                       !- Ceiling Height {m}
  ,                                       !- Volume {m3}
  ;                                       !- Floor Area {m2}

BuildingSurface:Detailed,
  surface_0_generic_window_frame,         !- Name
  Wall,                                   !- Surface Type
  generic_window_frame,                   !- Construction Name
  Main Zone,                              !- Zone Name
  Main Space,                             !- Space Name
  Outdoors,                               !- Outside Boundary Condition
  ,                                       !- Outside Boundary Condition Object
  SunExposed,                             !- Sun Exposure
  WindExposed,                            !- Wind Exposure
  ,                                       !- View Factor to Ground
  ,                                       !- Number of Vertices
  -24.0534224190221, -21.0669793783288, 4.71357600490892, !- X,Y,Z Vertex 1 {m}
  -26.4968072910803, 0.75097609015558, 5.99043053323527, !- X,Y,Z Vertex 2 {m}
  -24.0194264892424, -20.8199343697608, 2.35200935634912; !- X,Y,Z Vertex 3 {m}

FenestrationSurface:Detailed,
  subsurface_0_low_iron_3mm,              !- Name
  Window,                                 !- Surface Type
  low_iron_3mm,                           !- Construction Name
  surface_0_generic_window_frame,         !- Building Surface Name
  ,                                       !- Outside Boundary Condition Object
  ,                                       !- View Factor to Ground
  ,                                       !- Frame and Divider Name
  ,                                       !- Multiplier
  ,                                       !- Number of Vertices
  -24.0545066233634, -21.0570503175244, 4.7130878937662, !- X,Y,Z Vertex 1 {m}
  -26.4956874788769, 0.741102142730107, 5.98931197037689, !- X,Y,Z Vertex 2 {m}
  -24.0205529796793, -20.8103694445918, 2.35470068052278; !- X,Y,Z Vertex 3 {m}

BuildingSurface:Detailed,
  surface_10_generic_window_frame,        !- Name
  Wall,                                   !- Surface Type
  generic_window_frame,                   !- Construction Name
  Main Zone,                              !- Zone Name
  Main Space,                             !- Space Name
  Outdoors,                               !- Outside Boundary Condition
  ,                                       !- Outside Boundary Condition Object
  SunExposed,                             !- Sun Exposure
  WindExposed,                            !- Wind Exposure
  ,                                       !- View Factor to Ground
  ,                                       !- Number of Vertices
  -27.2542980434574, 1.20449514668394, 0, !- X,Y,Z Vertex 1 {m}
  -30.0086617394165, 22.9895092231158, 3.69164690376908, !- X,Y,Z Vertex 2 {m}
  -30.9352979961413, 23.2666360008949, 0; !- X,Y,Z Vertex 3 {m}

FenestrationSurface:Detailed,
  subsurface_10_clear_6mm,                !- Name
  Window,                                 !- Surface Type
  clear_6mm,                              !- Construction Name
  surface_10_generic_window_frame,        !- Building Surface Name
  ,                                       !- Outside Boundary Condition Object
  ,                                       !- View Factor to Ground
  ,                                       !- Frame and Divider Name
  ,                                       !- Multiplier
  ,                                       !- Number of Vertices
  -27.2557451556475, 1.21435500167677, 0.000830136030797528, !- X,Y,Z Vertex 1 {m}
  -30.0078605689777, 22.9800814041018, 3.68841049301528, !- X,Y,Z Vertex 2 {m}
  -30.9333038929261, 23.2569679621463, 0.00159767929279087; !- X,Y,Z Vertex 3 {m}

BuildingSurface:Detailed,
  surface_11_generic_window_frame,        !- Name
  Wall,                                   !- Surface Type
  generic_window_frame,                   !- Construction Name
  Main Zone,                              !- Zone Name
  Main Space,                             !- Space Name
  Outdoors,                               !- Outside Boundary Condition
  ,                                       !- Outside Boundary Condition Object
  SunExposed,                             !- Sun Exposure
  WindExposed,                            !- Wind Exposure
  ,                                       !- View Factor to Ground
  ,                                       !- Number of Vertices
  -26.6879483164644, 0.949109837477954, 3.47761168822852, !- X,Y,Z Vertex 1 {m}
  -30.0086617394165, 22.9895092231158, 3.69164690376908, !- X,Y,Z Vertex 2 {m}
  -27.2542980434574, 1.20449514668394, 0; !- X,Y,Z Vertex 3 {m}

FenestrationSurface:Detailed,
  subsurface_11_clear_6mm,                !- Name
  Window,                                 !- Surface Type
  clear_6mm,                              !- Construction Name
  surface_11_generic_window_frame,        !- Building Surface Name
  ,                                       !- Outside Boundary Condition Object
  ,                                       !- View Factor to Ground
  ,                                       !- Frame and Divider Name
  ,                                       !- Multiplier
  ,                                       !- Number of Vertices
  -26.689648234457, 0.958860387983692, 3.47618443784636, !- X,Y,Z Vertex 1 {m}
  -30.0072939878904, 22.9796423070306, 3.69076757292693, !- X,Y,Z Vertex 2 {m}
  -27.2552578181796, 1.21393914190673, 0.00314480312808922; !- X,Y,Z Vertex 3 {m}

BuildingSurface:Detailed,
  surface_12_M16_300mm_heavyweight_concrete, !- Name
  Floor,                                  !- Surface Type
  M16_300mm_heavyweight_concrete,         !- Construction Name
  Main Zone,                              !- Zone Name
  Main Space,                             !- Space Name
  Ground,                                 !- Outside Boundary Condition
  ,                                       !- Outside Boundary Condition Object
  NoSun,                                  !- Sun Exposure
  NoWind,                                 !- Wind Exposure
  ,                                       !- View Factor to Ground
  ,                                       !- Number of Vertices
  -30.9352979961413, 23.2666360008949, 0, !- X,Y,Z Vertex 1 {m}
  -5.18198693589744, -1.16925144412201, 0, !- X,Y,Z Vertex 2 {m}
  -27.2542980434574, 1.20449514668394, 0; !- X,Y,Z Vertex 3 {m}

BuildingSurface:Detailed,
  surface_13_M16_300mm_heavyweight_concrete, !- Name
  Floor,                                  !- Surface Type
  M16_300mm_heavyweight_concrete,         !- Construction Name
  Main Zone,                              !- Zone Name
  Main Space,                             !- Space Name
  Ground,                                 !- Outside Boundary Condition
  ,                                       !- Outside Boundary Condition Object
  NoSun,                                  !- Sun Exposure
  NoWind,                                 !- Wind Exposure
  ,                                       !- View Factor to Ground
  ,                                       !- Number of Vertices
  -5.18198693589744, -1.16925144412201, 0, !- X,Y,Z Vertex 1 {m}
  20.2063989025065, -25.2033193964239, 0, !- X,Y,Z Vertex 2 {m}
  -1.96393971485861, -22.931841733006, 0; !- X,Y,Z Vertex 3 {m}

BuildingSurface:Detailed,
  surface_14_M16_300mm_heavyweight_concrete, !- Name
  Floor,                                  !- Surface Type
  M16_300mm_heavyweight_concrete,         !- Construction Name
  Main Zone,                              !- Zone Name
  Main Space,                             !- Space Name
  Ground,                                 !- Outside Boundary Condition
  ,                                       !- Outside Boundary Condition Object
  NoSun,                                  !- Sun Exposure
  NoWind,                                 !- Wind Exposure
  ,                                       !- View Factor to Ground
  ,                                       !- Number of Vertices
  -27.2542980434574, 1.20449514668394, 0, !- X,Y,Z Vertex 1 {m}
  -1.96393971485861, -22.931841733006, 0, !- X,Y,Z Vertex 2 {m}
  -24.0499441831107, -20.8311595087678, 0; !- X,Y,Z Vertex 3 {m}

BuildingSurface:Detailed,
  surface_15_M16_300mm_heavyweight_concrete, !- Name
  Floor,                                  !- Surface Type
  M16_300mm_heavyweight_concrete,         !- Construction Name
  Main Zone,                              !- Zone Name
  Main Space,                             !- Space Name
  Ground,                                 !- Outside Boundary Condition
  ,                                       !- Outside Boundary Condition Object
  NoSun,                                  !- Sun Exposure
  NoWind,                                 !- Wind Exposure
  ,                                       !- View Factor to Ground
  ,                                       !- Number of Vertices
  -5.18198693589744, -1.16925144412201, 0, !- X,Y,Z Vertex 1 {m}
  -1.96393971485861, -22.931841733006, 0, !- X,Y,Z Vertex 2 {m}
  -27.2542980434574, 1.20449514668394, 0; !- X,Y,Z Vertex 3 {m}

BuildingSurface:Detailed,
  surface_16_generic_window_frame,        !- Name
  Wall,                                   !- Surface Type
  generic_window_frame,                   !- Construction Name
  Main Zone,                              !- Zone Name
  Main Space,                             !- Space Name
  Outdoors,                               !- Outside Boundary Condition
  ,                                       !- Outside Boundary Condition Object
  SunExposed,                             !- Sun Exposure
  WindExposed,                            !- Wind Exposure
  ,                                       !- View Factor to Ground
  ,                                       !- Number of Vertices
  -24.0534224190221, -21.0669793783288, 4.71357600490892, !- X,Y,Z Vertex 1 {m}
  1.03228358930668, 3.48756808254431, 8.3457353902312, !- X,Y,Z Vertex 2 {m}
  -26.4968072910803, 0.75097609015558, 5.99043053323527; !- X,Y,Z Vertex 3 {m}

FenestrationSurface:Detailed,
  subsurface_16_low_iron_3mm,             !- Name
  Window,                                 !- Surface Type
  low_iron_3mm,                           !- Construction Name
  surface_16_generic_window_frame,        !- Building Surface Name
  ,                                       !- Outside Boundary Condition Object
  ,                                       !- View Factor to Ground
  ,                                       !- Frame and Divider Name
  ,                                       !- Multiplier
  ,                                       !- Number of Vertices
  -24.0490545219829, -21.0580337266429, 4.71452299559993, !- X,Y,Z Vertex 1 {m}
  1.02345164018876, 3.48298697667154, 8.34473033114782, !- X,Y,Z Vertex 2 {m}
  -26.4883755753787, 0.745608210859984, 5.99073391780199; !- X,Y,Z Vertex 3 {m}

BuildingSurface:Detailed,
  surface_17_generic_window_frame,        !- Name
  Wall,                                   !- Surface Type
  generic_window_frame,                   !- Construction Name
  Main Zone,                              !- Zone Name
  Main Space,                             !- Space Name
  Outdoors,                               !- Outside Boundary Condition
  ,                                       !- Outside Boundary Condition Object
  SunExposed,                             !- Sun Exposure
  WindExposed,                            !- Wind Exposure
  ,                                       !- View Factor to Ground
  ,                                       !- Number of Vertices
  1.03228358930668, 3.48756808254431, 8.3457353902312, !- X,Y,Z Vertex 1 {m}
  24.9199127750765, 24.1274631350175, 9.85262719766111, !- X,Y,Z Vertex 2 {m}
  -2.69637367351907, 23.0680614439877, 8.86065204753049; !- X,Y,Z Vertex 3 {m}

FenestrationSurface:Detailed,
  subsurface_17_low_iron_3mm,             !- Name
  Window,                                 !- Surface Type
  low_iron_3mm,                           !- Construction Name
  surface_17_generic_window_frame,        !- Building Surface Name
  ,                                       !- Outside Boundary Condition Object
  ,                                       !- View Factor to Ground
  ,                                       !- Frame and Divider Name
  ,                                       !- Multiplier
  ,                                       !- Number of Vertices
  1.03675987897986, 3.49649899975561, 8.34618433179362, !- X,Y,Z Vertex 1 {m}
  24.9107064791979, 24.12358439796, 9.85218052660146, !- X,Y,Z Vertex 2 {m}
  -2.68776503649028, 23.0629747749212, 8.86078306781383; !- X,Y,Z Vertex 3 {m}

BuildingSurface:Detailed,
  surface_18_generic_window_frame,        !- Name
  Wall,                                   !- Surface Type
  generic_window_frame,                   !- Construction Name
  Main Zone,                              !- Zone Name
  Main Space,                             !- Space Name
  Outdoors,                               !- Outside Boundary Condition
  ,                                       !- Outside Boundary Condition Object
  SunExposed,                             !- Sun Exposure
  WindExposed,                            !- Wind Exposure
  ,                                       !- View Factor to Ground
  ,                                       !- Number of Vertices
  -26.4968072910803, 0.75097609015558, 5.99043053323527, !- X,Y,Z Vertex 1 {m}
  -2.69637367351907, 23.0680614439877, 8.86065204753049, !- X,Y,Z Vertex 2 {m}
  -29.0820225747708, 21.6863992827745, 6.87145419167963; !- X,Y,Z Vertex 3 {m}

FenestrationSurface:Detailed,
  subsurface_18_low_iron_3mm,             !- Name
  Window,                                 !- Surface Type
  low_iron_3mm,                           !- Construction Name
  surface_18_generic_window_frame,        !- Building Surface Name
  ,                                       !- Outside Boundary Condition Object
  ,                                       !- View Factor to Ground
  ,                                       !- Frame and Divider Name
  ,                                       !- Multiplier
  ,                                       !- Number of Vertices
  -26.4924168319545, 0.759927135008024, 5.99120684806468, !- X,Y,Z Vertex 1 {m}
  -2.70538171365563, 23.0638076895983, 8.85977981677388, !- X,Y,Z Vertex 2 {m}
  -29.0737380423218, 21.6808076729858, 6.87177108609599; !- X,Y,Z Vertex 3 {m}

BuildingSurface:Detailed,
  surface_19_generic_window_frame,        !- Name
  Wall,                                   !- Surface Type
  generic_window_frame,                   !- Construction Name
  Main Zone,                              !- Zone Name
  Main Space,                             !- Space Name
  Outdoors,                               !- Outside Boundary Condition
  ,                                       !- Outside Boundary Condition Object
  SunExposed,                             !- Sun Exposure
  WindExposed,                            !- Wind Exposure
  ,                                       !- View Factor to Ground
  ,                                       !- Number of Vertices
  1.03228358930668, 3.48756808254431, 8.3457353902312, !- X,Y,Z Vertex 1 {m}
  -2.69637367351907, 23.0680614439877, 8.86065204753049, !- X,Y,Z Vertex 2 {m}
  -26.4968072910803, 0.75097609015558, 5.99043053323527; !- X,Y,Z Vertex 3 {m}

FenestrationSurface:Detailed,
  subsurface_19_low_iron_3mm,             !- Name
  Window,                                 !- Surface Type
  low_iron_3mm,                           !- Construction Name
  surface_19_generic_window_frame,        !- Building Surface Name
  ,                                       !- Outside Boundary Condition Object
  ,                                       !- View Factor to Ground
  ,                                       !- Frame and Divider Name
  ,                                       !- Multiplier
  ,                                       !- Number of Vertices
  1.0234921853657, 3.49230551725006, 8.3452177714956, !- X,Y,Z Vertex 1 {m}
  -2.70068272531563, 23.0590667823472, 8.85992531884131, !- X,Y,Z Vertex 2 {m}
  -26.4878580081543, 0.755344189199965, 5.99134160175561; !- X,Y,Z Vertex 3 {m}

BuildingSurface:Detailed,
  surface_1_generic_window_frame,         !- Name
  Wall,                                   !- Surface Type
  generic_window_frame,                   !- Construction Name
  Main Zone,                              !- Zone Name
  Main Space,                             !- Space Name