
OS:Version,
  {351f753d-118d-47b6-a761-ed6c85918452}, !- Handle
  3.9.0;                                  !- Version Identifier

OS:Space,
  {6ef34b23-fd1b-4128-9e0f-1fb350d184a7}, !- Handle
  Main Space,                             !- Name
  ,                                       !- Space Type Name
  ,                                       !- Default Construction Set Name
  ,                                       !- Default Schedule Set Name
  ,                                       !- Direction of Relative North {deg}
  ,                                       !- X Origin {m}
  ,                                       !- Y Origin {m}
  ,                                       !- Z Origin {m}
  ,                                       !- Building Story Name
  {13a4ece0-d353-4101-8a7d-3691e0565fee}; !- Thermal Zone Name

OS:Construction,
  {7a184e38-9752-4592-a876-195379cf5450}, !- Handle
  clear_6mm,                              !- Name
  ,                                       !- Surface Rendering Name
  {837a5955-fe01-4203-8343-9a3f67bc21ad}; !- Layer 1

OS:WindowMaterial:Glazing,
  {837a5955-fe01-4203-8343-9a3f67bc21ad}, !- Handle
  clear_6mm,                              !- Name
  SpectralAverage,                        !- Optical Data Type
  ,                                       !- Window Glass Spectral Data Set Name
  0.006,                                  !- Thickness {m}
  0.775,                                  !- Solar Transmittance at Normal Incidence
  0.071,                                  !- Front Side Solar Reflectance at Normal Incidence
  0.071,                                  !- Back Side Solar Reflectance at Normal Incidence
  0.881,                                  !- Visible Transmittance at Normal Incidence
  0.08,                                   !- Front Side Visible Reflectance at Normal Incidence
  0.08,                                   !- Back Side Visible Reflectance at Normal Incidence
  0,                                      !- Infrared Transmittance at Normal Incidence
  0.84,                                   !- Front Side Infrared Hemispherical Emissivity
  0.84,                                   !- Back Side Infrared Hemispherical Emissivity
  0.9;                                    !- Conductivity {W/m-K}

OS:Construction,
  {b99fcb77-fd30-454a-a145-6bb70490eff0}, !- Handle
  M16_300mm_heavyweight_concrete,         !- Name
  ,                                       !- Surface Rendering Name
  {88bdf92e-da2e-444e-b38b-f3463504132d}; !- Layer 1

OS:Material,
  {88bdf92e-da2e-444e-b38b-f3463504132d}, !- Handle
  M16_300mm_heavyweight_concrete,         !- Name
  MediumRough,                            !- Roughness
  0.3048,                                 !- Thickness {m}
  1.95,                                   !- Conductivity {W/m-K}
  2240,                                   !- Density {kg/m3}
  900,                                    !- Specific Heat {J/kg-K}
  0.9,                                    !- Thermal Absorptance
  0.7,                                    !- Solar Absorptance
  0.7;                                    !- Visible Absorptance

OS:Construction,
  {eaa9533a-a6d4-4a29-8062-ec880293322e}, !- Handle
  low_iron_3mm,                           !- Name
  ,                                       !- Surface Rendering Name
  {77657ced-6519-4005-a785-ac3e045e368c}; !- Layer 1

OS:WindowMaterial:Glazing,
  {77657ced-6519-4005-a785-ac3e045e368c}, !- Handle
  low_iron_3mm,                           !- Name
  SpectralAverage,                        !- Optical Data Type
  ,                                       !- Window Glass Spectral Data Set Name
  0.003,                                  !- Thickness {m}
  0.899,                                  !- Solar Transmittance at Normal Incidence
  0.079,                                  !- Front Side Solar Reflectance at Normal Incidence
  0.079,                                  !- Back Side Solar Reflectance at Normal Incidence
  0.913,                                  !- Visible Transmittance at Normal Incidence
  0.082,                                  !- Front Side Visible Reflectance at Normal Incidence
  0.082,                                  !- Back Side Visible Reflectance at Normal Incidence
  0,                                      !- Infrared Transmittance at Normal Incidence
  0.84,                                   !- Front Side Infrared Hemispherical Emissivity
  0.84,                                   !- Back Side Infrared Hemispherical Emissivity
  0.9;                                    !- Conductivity {W/m-K}

OS:Construction,
  {ab0c12fd-7691-4f3a-99b4-1e197b304eb0}, !- Handle
  generic_window_frame,                   !- Name
  ,                                       !- Surface Rendering Name
  {9d82f5f0-8b7e-45b1-9a73-5de05f9fed1d}; !- Layer 1

OS:Material,
  {9d82f5f0-8b7e-45b1-9a73-5de05f9fed1d}, !- Handle
  generic_window_frame,                   !- Name
  MediumSmooth,                           !- Roughness
  0.1,                                    !- Thickness {m}
  0.17,                                   !- Conductivity {W/m-K}
  700,                                    !- Density {kg/m3}
  1000,                                   !- Specific Heat {J/kg-K}
  0.9,                                    !- Thermal Absorptance
  0.7,                                    !- Solar Absorptance
  0.7;                                    !- Visible Absorptance

OS:Surface,
  {9304f2a0-c2b0-435c-8c31-2b381a442384}, !- Handle
  surface_0_generic_window_frame,         !- Name
  Wall,                                   !- Surface Type
  {ab0c12fd-7691-4f3a-99b4-1e197b304eb0}, !- Construction Name
  {6ef34b23-fd1b-4128-9e0f-1fb350d184a7}, !- Space Name
  Outdoors,                               !- Outside Boundary Condition
  ,                                       !- Outside Boundary Condition Object
  SunExposed,                             !- Sun Exposure
  WindExposed,                            !- Wind Exposure
  ,                                       !- View Factor to Ground
  ,                                       !- Number of Vertices
  -24.1341017613758, -21.1285778499504, 4.65911938477263, !- X,Y,Z Vertex 1 {m}
  -26.6606349943137, 0.731673026091844, 6.01049844805726, !- X,Y,Z Vertex 2 {m}
  -24.1267305339464, -21.0143882499956, 2.37211170289152; !- X,Y,Z Vertex 3 {m}

OS:SubSurface,
  {ee3aae12-9059-4b8c-9756-9b04b95cd103}, !- Handle
  subsurface_0_low_iron_3mm,              !- Name
  FixedWindow,                            !- Sub Surface Type
  {eaa9533a-a6d4-4a29-8062-ec880293322e}, !- Construction Name
  {9304f2a0-c2b0-435c-8c31-2b381a442384}, !- Surface Name
  ,                                       !- Outside Boundary Condition Object
  ,                                       !- View Factor to Ground
  ,                                       !- Frame and Divider Name
  ,                                       !- Multiplier
  ,                                       !- Number of Vertices
  -24.1352396894291, -21.118651798264, 4.65869675294099, !- X,Y,Z Vertex 1 {m}
  -26.6594896228271, 0.721803242171588, 6.00936907233362, !- X,Y,Z Vertex 2 {m}
  -24.1278563748475, -21.0048048561052, 2.37473678266275; !- X,Y,Z Vertex 3 {m}

OS:Surface,
  {3a76cedf-d5b6-4150-87ad-b5ea0ad81d03}, !- Handle
  surface_1_generic_window_frame,         !- Name
  Wall,                                   !- Surface Type
  {ab0c12fd-7691-4f3a-99b4-1e197b304eb0}, !- Construction Name
  {6ef34b23-fd1b-4128-9e0f-1fb350d184a7}, !- Space Name
  Outdoors,                               !- Outside Boundary Condition
  ,                                       !- Outside Boundary Condition Object
  SunExposed,                             !- Sun Exposure
  WindExposed,                            !- Wind Exposure
  ,                                       !- View Factor to Ground
  ,                                       !- Number of Vertices
  -26.6606349943137, 0.731673026091844, 6.01049844805726, !- X,Y,Z Vertex 1 {m}
  -29.2151270264361, 21.7626296274521, 6.8737107243416, !- X,Y,Z Vertex 2 {m}
  -27.9596382819641, 2.52300142651991, 3.25741003257931; !- X,Y,Z Vertex 3 {m}

OS:SubSurface,
  {654e781b-4b98-4ec4-82d5-cbd39fce02ad}, !- Handle
  subsurface_1_low_iron_3mm,              !- Name
  FixedWindow,                            !- Sub Surface Type
  {eaa9533a-a6d4-4a29-8062-ec880293322e}, !- Construction Name
  {3a76cedf-d5b6-4150-87ad-b5ea0ad81d03}, !- Surface Name
  ,                                       !- Outside Boundary Condition Object
  ,                                       !- View Factor to Ground
  ,                                       !- Frame and Divider Name
  ,                                       !- Multiplier
  ,                                       !- Number of Vertices
  -26.6622943847567, 0.741500748322015, 6.00968463043365, !- X,Y,Z Vertex 1 {m}
  -29.2141908600948, 21.7527345733171, 6.87261004444001, !- X,Y,Z Vertex 2 {m}
  -27.9596148550029, 2.53239508234999, 3.26083912594688; !- X,Y,Z Vertex 3 {m}

OS:Surface,
  {584c0821-cc34-4a2f-b6ea-bf3b00926c86}, !- Handle
  surface_2_generic_window_frame,         !- Name
  Wall,                                   !- Surface Type
  {ab0c12fd-7691-4f3a-99b4-1e197b304eb0}, !- Construction Name
  {6ef34b23-fd1b-4128-9e0f-1fb350d184a7}, !- Space Name
  Outdoors,                               !- Outside Boundary Condition
  ,                                       !- Outside Boundary Condition Object
  SunExposed,                             !- Sun Exposure
  WindExposed,                            !- Wind Exposure
  ,                                       !- View Factor to Ground
  ,                                       !- Number of Vertices
  -24.1267305339464, -21.0143882499956, 2.37211170289152, !- X,Y,Z Vertex 1 {m}
  -27.9596382819641, 2.52300142651991, 3.25741003257931, !- X,Y,Z Vertex 2 {m}
  -24.1195896474479, -21.0302933454838, 0; !- X,Y,Z Vertex 3 {m}

OS:SubSurface,
  {f76b1153-87e7-4b1c-bda0-e4cb15f7c11e}, !- Handle
  subsurface_2_low_iron_3mm,              !- Name
  FixedWindow,                            !- Sub Surface Type
  {eaa9533a-a6d4-4a29-8062-ec880293322e}, !- Construction Name
  {584c0821-cc34-4a2f-b6ea-bf3b00926c86}, !- Surface Name
  ,                                       !- Outside Boundary Condition Object
  ,                                       !- View Factor to Ground
  ,                                       !- Frame and Divider Name
  ,                                       !- Multiplier
  ,                                       !- Number of Vertices
  -24.1283328204835, -21.0045371117946, 2.37148900393015, !- X,Y,Z Vertex 1 {m}
  -27.9580361184468, 2.5131685833672, 3.25654500795648, !- X,Y,Z Vertex 2 {m}
  -24.1211576454051, -21.0206872532846, 0.00229442259952493; !- X,Y,Z Vertex 3 {m}

OS:Surface,
  {a214e6d1-3ea6-4d70-a0cd-8b874545bab8}, !- Handle
  surface_3_generic_window_frame,         !- Name
  Wall,                                   !- Surface Type
  {ab0c12fd-7691-4f3a-99b4-1e197b304eb0}, !- Construction Name
  {6ef34b23-fd1b-4128-9e0f-1fb350d184a7}, !- Space Name
  Outdoors,                               !- Outside Boundary Condition
  ,                                       !- Outside Boundary Condition Object
  SunExposed,                             !- Sun Exposure
  WindExposed,                            !- Wind Exposure
  ,                                       !- View Factor to Ground
  ,                                       !- Number of Vertices
  -26.6606349943137, 0.731673026091844, 6.01049844805726, !- X,Y,Z Vertex 1 {m}
  -27.9596382819641, 2.52300142651991, 3.25741003257931, !- X,Y,Z Vertex 2 {m}
  -24.1267305339464, -21.0143882499956, 2.37211170289152; !- X,Y,Z Vertex 3 {m}

OS:SubSurface,
  {3678c4f1-01df-4fa3-83d6-d415e1fdf2ad}, !- Handle
  subsurface_3_low_iron_3mm,              !- Name
  FixedWindow,                            !- Sub Surface Type
  {eaa9533a-a6d4-4a29-8062-ec880293322e}, !- Construction Name
  {a214e6d1-3ea6-4d70-a0cd-8b874545bab8}, !- Surface Name
  ,                                       !- Outside Boundary Condition Object
  ,                                       !- View Factor to Ground
  ,                                       !- Frame and Divider Name
  ,                                       !- Multiplier
  ,                                       !- Number of Vertices
  -26.6600466574333, 0.722166107199238, 6.0074533942179, !- X,Y,Z Vertex 1 {m}
  -27.9576576743633, 2.51322607164851, 3.25813088670459, !- X,Y,Z Vertex 2 {m}
  -24.1281160678072, -21.0045337494109, 2.373096138845; !- X,Y,Z Vertex 3 {m}

OS:Surface,
  {dc918cb5-d45b-40a7-9530-92e06cd54ef3}, !- Handle
  surface_4_generic_window_frame,         !- Name
  Wall,                                   !- Surface Type
  {ab0c12fd-7691-4f3a-99b4-1e197b304eb0}, !- Construction Name
  {6ef34b23-fd1b-4128-9e0f-1fb350d184a7}, !- Space Name
  Outdoors,                               !- Outside Boundary Condition
  ,                                       !- Outside Boundary Condition Object
  SunExposed,                             !- Sun Exposure
  WindExposed,                            !- Wind Exposure
  ,                                       !- View Factor to Ground
  ,                                       !- Number of Vertices
  20.2764377331621, -25.3569793708284, 0, !- X,Y,Z Vertex 1 {m}
  -1.85357882248923, -23.2679316877212, 2.32817072041908, !- X,Y,Z Vertex 2 {m}
  -1.9013851109474, -23.1789252387041, 0; !- X,Y,Z Vertex 3 {m}

OS:SubSurface,
  {f6e6c456-040e-4aa9-af15-59141c074a36}, !- Handle
  subsurface_4_low_iron_3mm,              !- Name
  FixedWindow,                            !- Sub Surface Type
  {eaa9533a-a6d4-4a29-8062-ec880293322e}, !- Construction Name
  {dc918cb5-d45b-40a7-9530-92e06cd54ef3}, !- Surface Name
  ,                                       !- Outside Boundary Condition Object
  ,                                       !- View Factor to Ground
  ,                                       !- Frame and Divider Name
  ,                                       !- Multiplier
  ,                                       !- Number of Vertices
  20.2664973744251, -25.3560220566514, 0.000522319582166431, !- X,Y,Z Vertex 1 {m}
  -1.8438321920048, -23.2688144645188, 2.3261155076988, !- X,Y,Z Vertex 2 {m}
  -1.89149031384516, -23.17993452867, 0.00103649605419522; !- X,Y,Z Vertex 3 {m}

OS:Surface,
  {ee3de46f-edef-4a4b-b4e3-e0d29f94f3d3}, !- Handle
  surface_5_generic_window_frame,         !- Name
  Wall,                                   !- Surface Type
  {ab0c12fd-7691-4f3a-99b4-1e197b304eb0}, !- Construction Name
  {6ef34b23-fd1b-4128-9e0f-1fb350d184a7}, !- Space Name
  Outdoors,                               !- Outside Boundary Condition
  ,                                       !- Outside Boundary Condition Object
  SunExposed,                             !- Sun Exposure
  WindExposed,                            !- Wind Exposure
  ,                                       !- View Factor to Ground
  ,                                       !- Number of Vertices
  -1.85357882248923, -23.2679316877212, 2.32817072041908, !- X,Y,Z Vertex 1 {m}
  -24.1341017613758, -21.1285778499504, 4.65911938477263, !- X,Y,Z Vertex 2 {m}
  -24.1267305339464, -21.0143882499956, 2.37211170289152; !- X,Y,Z Vertex 3 {m}

OS:SubSurface,
  {a2fd10ab-587d-4d90-b97e-2a55b65a81e7}, !- Handle
  subsurface_5_low_iron_3mm,              !- Name
  FixedWindow,                            !- Sub Surface Type
  {eaa9533a-a6d4-4a29-8062-ec880293322e}, !- Construction Name
  {ee3de46f-edef-4a4b-b4e3-e0d29f94f3d3}, !- Surface Name
  ,                                       !- Outside Boundary Condition Object
  ,                                       !- View Factor to Ground
  ,                                       !- Frame and Divider Name
  ,                                       !- Multiplier
  ,                                       !- Number of Vertices
  -1.86351659392014, -23.2669518446581, 2.3287004435153, !- X,Y,Z Vertex 1 {m}
  -24.124348268931, -21.1294640899848, 4.65709850285362, !- X,Y,Z Vertex 2 {m}
  -24.1168361215542, -21.0154404173394, 2.37310847131664; !- X,Y,Z Vertex 3 {m}

OS:Surface,
  {fba0427c-450a-49db-98d8-3f9a253ba396}, !- Handle
  surface_6_generic_window_frame,         !- Name
  Wall,                                   !- Surface Type
  {ab0c12fd-7691-4f3a-99b4-1e197b304eb0}, !- Construction Name
  {6ef34b23-fd1b-4128-9e0f-1fb350d184a7}, !- Space Name
  Outdoors,                               !- Outside Boundary Condition
  ,                                       !- Outside Boundary Condition Object
  SunExposed,                             !- Sun Exposure
  WindExposed,                            !- Wind Exposure
  ,                                       !- View Factor to Ground
  ,                                       !- Number of Vertices
  -1.9013851109474, -23.1789252387041, 0, !- X,Y,Z Vertex 1 {m}
  -24.1267305339464, -21.0143882499956, 2.37211170289152, !- X,Y,Z Vertex 2 {m}
  -24.1195896474479, -21.0302933454838, 0; !- X,Y,Z Vertex 3 {m}

OS:SubSurface,
  {43b53d88-e0dc-4846-babd-d760543ab055}, !- Handle
  subsurface_6_low_iron_3mm,              !- Name
  FixedWindow,                            !- Sub Surface Type
  {eaa9533a-a6d4-4a29-8062-ec880293322e}, !- Construction Name
  {fba0427c-450a-49db-98d8-3f9a253ba396}, !- Surface Name
  ,                                       !- Outside Boundary Condition Object
  ,                                       !- View Factor to Ground
  ,                                       !- Frame and Divider Name
  ,                                       !- Multiplier
  ,                                       !- Number of Vertices
  -1.9113243340305, -23.1779606544674, 0.000530491992979208, !- X,Y,Z Vertex 1 {m}
  -24.1169953993354, -21.0153430193771, 2.37003430800024, !- X,Y,Z Vertex 2 {m}
  -24.109691208868, -21.031243802677, 0.00105713991754552; !- X,Y,Z Vertex 3 {m}

OS:Surface,
  {dccc6d46-479e-42f7-aa7b-0dda51c498ae}, !- Handle
  surface_7_generic_window_frame,         !- Name
  Wall,                                   !- Surface Type
  {ab0c12fd-7691-4f3a-99b4-1e197b304eb0}, !- Construction Name
  {6ef34b23-fd1b-4128-9e0f-1fb350d184a7}, !- Space Name
  Outdoors,                               !- Outside Boundary Condition
  ,                                       !- Outside Boundary Condition Object
  SunExposed,                             !- Sun Exposure
  WindExposed,                            !- Wind Exposure
  ,                                       !- View Factor to Ground
  ,                                       !- Number of Vertices
  -1.85357882248923, -23.2679316877212, 2.32817072041908, !- X,Y,Z Vertex 1 {m}
  -24.1267305339464, -21.0143882499956, 2.37211170289152, !- X,Y,Z Vertex 2 {m}
  -1.9013851109474, -23.1789252387041, 0; !- X,Y,Z Vertex 3 {m}

OS:SubSurface,
  {f58ad428-5d81-4e61-8b36-c980d885c86a}, !- Handle
  subsurface_7_low_iron_3mm,              !- Name
  FixedWindow,                            !- Sub Surface Type
  {eaa9533a-a6d4-4a29-8062-ec880293322e}, !- Construction Name
  {dccc6d46-479e-42f7-aa7b-0dda51c498ae}, !- Surface Name
  ,                                       !- Outside Boundary Condition Object
  ,                                       !- View Factor to Ground
  ,                                       !- Frame and Divider Name
  ,                                       !- Multiplier
  ,                                       !- Number of Vertices
  -1.8634730895554, -23.2668932997544, 2.32715818417096, !- X,Y,Z Vertex 1 {m}
  -24.1167939539159, -21.0153748138701, 2.37157219476401, !- X,Y,Z Vertex 2 {m}
  -1.91112707064533, -23.1780135174014, 0.00206469985957453; !- X,Y,Z Vertex 3 {m}

OS:Surface,
  {6e6c0ea8-4a57-4520-aa21-b6141398cddc}, !- Handle
  surface_8_generic_window_frame,         !- Name
  Wall,                                   !- Surface Type
  {ab0c12fd-7691-4f3a-99b4-1e197b304eb0}, !- Construction Name
  {6ef34b23-fd1b-4128-9e0f-1fb350d184a7}, !- Space Name
  Outdoors,                               !- Outside Boundary Condition
  ,                                       !- Outside Boundary Condition Object
  SunExposed,                             !- Sun Exposure
  WindExposed,                            !- Wind Exposure
  ,                                       !- View Factor to Ground
  ,                                       !- Number of Vertices
  -24.1195896474479, -21.0302933454838, 0, !- X,Y,Z Vertex 1 {m}
  -27.9596382819641, 2.52300142651991, 3.25741003257931, !- X,Y,Z Vertex 2 {m}
  -27.5404770534917, 1.2652863801055, 0;  !- X,Y,Z Vertex 3 {m}

OS:SubSurface,
  {cde1920b-8e25-4c46-b8e3-681b212ad75d}, !- Handle
  subsurface_8_clear_6mm,                 !- Name
  FixedWindow,                            !- Sub Surface Type
  {7a184e38-9752-4592-a876-195379cf5450}, !- Construction Name
  {6e6c0ea8-4a57-4520-aa21-b6141398cddc}, !- Surface Name
  ,                                       !- Outside Boundary Condition Object
  ,                                       !- View Factor to Ground
  ,                                       !- Frame and Divider Name
  ,                                       !- Multiplier
  ,                                       !- Number of Vertices
  -24.1211499844594, -21.0204406632102, 0.000700000303989401, !- X,Y,Z Vertex 1 {m}
  -27.9580003302154, 2.51345992980392, 3.25490464748165, !- X,Y,Z Vertex 2 {m}
  -27.5390808456455, 1.255500933334, 0.00151513535108569; !- X,Y,Z Vertex 3 {m}

OS:Surface,
  {62160166-8437-4b6e-b9ba-730f84ff64f9}, !- Handle
  surface_9_generic_window_frame,         !- Name
  Wall,                                   !- Surface Type
  {ab0c12fd-7691-4f3a-99b4-1e197b304eb0}, !- Construction Name
  {6ef34b23-fd1b-4128-9e0f-1fb350d184a7}, !- Space Name
  Outdoors,                               !- Outside Boundary Condition
  ,                                       !- Outside Boundary Condition Object
  SunExposed,                             !- Sun Exposure
  WindExposed,                            !- Wind Exposure
  ,                                       !- View Factor to Ground
  ,                                       !- Number of Vertices
  -27.9596382819641, 2.52300142651991, 3.25741003257931, !- X,Y,Z Vertex 1 {m}
  -29.2151270264361, 21.7626296274521, 6.8737107243416, !- X,Y,Z Vertex 2 {m}
  -30.0771036580069, 23.1100146864849, 3.73941275676039; !- X,Y,Z Vertex 3 {m}

OS:SubSurface,
  {e007e4b3-14a0-4908-a7f1-a2a1368fcbcc}, !- Handle
  subsurface_9_clear_6mm,                 !- Name
  FixedWindow,                            !- Sub Surface Type
  {7a184e38-9752-4592-a876-195379cf5450}, !- Construction Name
  {62160166-8437-4b6e-b9ba-730f84ff64f9}, !- Surface Name
  ,                                       !- Outside Boundary Condition Object
  ,                                       !- View Factor to Ground
  ,                                       !- Frame and Divider Name
  ,                                       !- Multiplier
  ,                                       !- Number of Vertices
  -27.9604777684309, 2.53291378385641, 3.25843004949367, !- X,Y,Z Vertex 1 {m}
  -29.2149212943894, 21.7532753847714, 6.87018144421733, !- X,Y,Z Vertex 2 {m}
  -30.0757672353765, 23.1001760568952, 3.74060243837749; !- X,Y,Z Vertex 3 {m}

OS:Surface,
  {87fa30e3-ef4c-4e95-8a47-c4943fbc3682}, !- Handle
  surface_10_generic_window_frame,        !- Name
  Wall,                                   !- Surface Type
  {ab0c12fd-7691-4f3a-99b4-1e197b304eb0}, !- Construction Name
  {6ef34b23-fd1b-4128-9e0f-1fb350d184a7}, !- Space Name
  Outdoors,                               !- Outside Boundary Condition
  ,                                       !- Outside Boundary Condition Object
  SunExposed,                             !- Sun Exposure
  WindExposed,                            !- Wind Exposure
  ,                                       !- View Factor to Ground
  ,                                       !- Number of Vertices
  -27.5404770534917, 1.2652863801055, 0,  !- X,Y,Z Vertex 1 {m}
  -30.0771036580069, 23.1100146864849, 3.73941275676039, !- X,Y,Z Vertex 2 {m}
  -30.8750986703845, 23.4495637761631, 0; !- X,Y,Z Vertex 3 {m}

OS:SubSurface,
  {1b95d2c7-5680-4c4b-81b6-0e53423f9192}, !- Handle
  subsurface_10_clear_6mm,                !- Name
  FixedWindow,                            !- Sub Surface Type
  {7a184e38-9752-4592-a876-195379cf5450}, !- Construction Name
  {87fa30e3-ef4c-4e95-8a47-c4943fbc3682}, !- Surface Name
  ,                                       !- Outside Boundary Condition Object
  ,                                       !- View Factor to Ground
  ,                                       !- Frame and Divider Name
  ,                                       !- Multiplier
  ,                                       !- Number of Vertices
  -27.541794189498, 1.27516369861552, 0.000838887234668903, !- X,Y,Z Vertex 1 {m}
  -30.0763422626496, 23.100596967581, 3.73613757008522, !- X,Y,Z Vertex 2 {m}
  -30.8733176091552, 23.4398565331043, 0.00161159954548632; !- X,Y,Z Vertex 3 {m}

OS:Surface,
  {00cf21ef-8138-47f4-aaf8-8ca68ce71022}, !- Handle
  surface_11_generic_window_frame,        !- Name
  Wall,                                   !- Surface Type
  {ab0c12fd-7691-4f3a-99b4-1e197b304eb0}, !- Construction Name
  {6ef34b23-fd1b-4128-9e0f-1fb350d184a7}, !- Space Name
  Outdoors,                               !- Outside Boundary Condition
  ,                                       !- Outside Boundary Condition Object
  SunExposed,                             !- Sun Exposure
  WindExposed,                            !- Wind Exposure
  ,                                       !- View Factor to Ground
  ,                                       !- Number of Vertices
  -27.9596382819641, 2.52300142651991, 3.25741003257931, !- X,Y,Z Vertex 1 {m}
  -30.0771036580069, 23.1100146864849, 3.73941275676039, !- X,Y,Z Vertex 2 {m}
  -27.5404770534917, 1.2652863801055, 0;  !- X,Y,Z Vertex 3 {m}

OS:SubSurface,
  {4cb767a0-59fc-4b36-a67e-2c1a596ed168}, !- Handle
  subsurface_11_clear_6mm,                !- Name
  FixedWindow,                            !- Sub Surface Type
  {7a184e38-9752-4592-a876-195379cf5450}, !- Construction Name
  {00cf21ef-8138-47f4-aaf8-8ca68ce71022}, !- Surface Name
  ,                                       !- Outside Boundary Condition Object
  ,                                       !- View Factor to Ground
  ,                                       !- Frame and Divider Name
  ,                                       !- Multiplier
  ,                                       !- Number of Vertices
  -27.9605047085387, 2.53286268586112, 3.25599409854263, !- X,Y,Z Vertex 1 {m}
  -30.0760186476457, 23.1001225572721, 3.73842861644805, !- X,Y,Z Vertex 2 {m}
  -27.541692475379, 1.27478611989966, 0.00287709810038486; !- X,Y,Z Vertex 3 {m}

OS:Surface,
  {23634fce-2961-48b3-854c-23130c9ce26a}, !- Handle
  surface_12_M16_300mm_heavyweight_concrete, !- Name
  Floor,                                  !- Surface Type
  {b99fcb77-fd30-454a-a145-6bb70490eff0}, !- Construction Name
  {6ef34b23-fd1b-4128-9e0f-1fb350d184a7}, !- Space Name
  Ground,                                 !- Outside Boundary Condition
  ,                                       !- Outside Boundary Condition Object
  NoSun,                                  !- Sun Exposure
  NoWind,                                 !- Wind Exposure
  ,                                       !- View Factor to Ground
  ,                                       !- Number of Vertices
  -30.8750986703845, 23.4495637761631, 0, !- X,Y,Z Vertex 1 {m}
  -5.18383935176296, -0.975666588831589, 0, !- X,Y,Z Vertex 2 {m}
  -27.5404770534917, 1.2652863801055, 0;  !- X,Y,Z Vertex 3 {m}

OS:Surface,
  {25fd470e-6e4a-4d56-8045-063a8e33afa2}, !- Handle
  surface_13_M16_300mm_heavyweight_concrete, !- Name
  Floor,                                  !- Surface Type
  {b99fcb77-fd30-454a-a145-6bb70490eff0}, !- Construction Name
  {6ef34b23-fd1b-4128-9e0f-1fb350d184a7}, !- Space Name
  Ground,                                 !- Outside Boundary Condition
  ,                                       !- Outside Boundary Condition Object
  NoSun,                                  !- Sun Exposure
  NoWind,                                 !- Wind Exposure
  ,                                       !- View Factor to Ground
  ,                                       !- Number of Vertices
  -5.18383935176296, -0.975666588831589, 0, !- X,Y,Z Vertex 1 {m}
  20.2764377331621, -25.3569793708284, 0, !- X,Y,Z Vertex 2 {m}
  -1.9013851109474, -23.1789252387041, 0; !- X,Y,Z Vertex 3 {m}

OS:Surface,
  {695f7092-62c7-4174-b0db-c4218c8db321}, !- Handle
  surface_14_M16_300mm_heavyweight_concrete, !- Name
  Floor,                                  !- Surface Type
  {b99fcb77-fd30-454a-a145-6bb70490eff0}, !- Construction Name
  {6ef34b23-fd1b-4128-9e0f-1fb350d184a7}, !- Space Name
  Ground,                                 !- Outside Boundary Condition
  ,                                       !- Outside Boundary Condition Object
  NoSun,                                  !- Sun Exposure
  NoWind,                                 !- Wind Exposure
  ,                                       !- View Factor to Ground
  ,                                       !- Number of Vertices
  -27.5404770534917, 1.2652863801055, 0,  !- X,Y,Z Vertex 1 {m}
  -1.9013851109474, -23.1789252387041, 0, !- X,Y,Z Vertex 2 {m}
  -24.1195896474479, -21.0302933454838, 0; !- X,Y,Z Vertex 3 {m}

OS:Surface,
  {12528bb3-6f92-487b-8c63-d5bc96d1cbf1}, !- Handle
  surface_15_M16_300mm_heavyweight_concrete, !- Name
  Floor,                                  !- Surface Type
  {b99fcb77-fd30-454a-a145-6bb70490eff0}, !- Construction Name
  {6ef34b23-fd1b-4128-9e0f-1fb350d184a7}, !- Space Name
  Ground,                                 !- Outside Boundary Condition