
Version,
  24.2;                                   !- Version Identifier

Timestep,
  6;                                      !- Number of Timesteps per Hour

LifeCycleCost:Parameters,
  Life Cycle Cost Parameters,             !- Name
  EndOfYear,                              !- Discounting Convention
  ConstantDollar,                         !- Inflation Approach
  0.03,                                   !- Real Discount Rate
  ,                                       !- Nominal Discount Rate
  ,                                       !- Inflation
  ,                                       !- Base Date Month
  2011,                                   !- Base Date Year
  ,                                       !- Service Date Month
  2011,                                   !- Service Date Year
  25,                                     !- Length of Study Period in Years
  ,                                       !- Tax rate
  None;                                   !- Depreciation Method

LifeCycleCost:UsePriceEscalation,
  U.S. Avg  Commercial-Electricity,       !- Name
  Electricity,                            !- Resource
  2011,                                   !- Escalation Start Year
  January,                                !- Escalation Start Month
  0.9838,                                 !- Year Escalation 1
  0.9730,                                 !- Year Escalation 2
  0.9632,                                 !- Year Escalation 3
  0.9611,                                 !- Year Escalation 4
  0.9571,                                 !- Year Escalation 5
  0.9553,                                 !- Year Escalation 6
  0.9539,                                 !- Year Escalation 7
  0.9521,                                 !- Year Escalation 8
  0.9546,                                 !- Year Escalation 9
  0.9550,                                 !- Year Escalation 10
  0.9553,                                 !- Year Escalation 11
  0.9564,                                 !- Year Escalation 12
  0.9575,                                 !- Year Escalation 13
  0.9596,                                 !- Year Escalation 14
  0.9618,                                 !- Year Escalation 15
  0.9614,                                 !- Year Escalation 16
  0.9618,                                 !- Year Escalation 17
  0.9618,                                 !- Year Escalation 18
  0.9593,                                 !- Year Escalation 19
  0.9589,                                 !- Year Escalation 20
  0.9607,                                 !- Year Escalation 21
  0.9625,                                 !- Year Escalation 22
  0.9650,                                 !- Year Escalation 23
  0.9708,                                 !- Year Escalation 24
  0.9751,                                 !- Year Escalation 25
  0.9762,                                 !- Year Escalation 26
  0.9766,                                 !- Year Escalation 27
  0.9766,                                 !- Year Escalation 28
  0.9769,                                 !- Year Escalation 29
  0.9773;                                 !- Year Escalation 30

LifeCycleCost:UsePriceEscalation,
  U.S. Avg  Commercial-Distillate Oil,    !- Name
  FuelOilNo1,                             !- Resource
  2011,                                   !- Escalation Start Year
  January,                                !- Escalation Start Month
  0.9714,                                 !- Year Escalation 1
  0.9730,                                 !- Year Escalation 2
  0.9942,                                 !- Year Escalation 3
  1.0164,                                 !- Year Escalation 4
  1.0541,                                 !- Year Escalation 5
  1.0928,                                 !- Year Escalation 6
  1.1267,                                 !- Year Escalation 7
  1.1580,                                 !- Year Escalation 8
  1.1792,                                 !- Year Escalation 9
  1.1967,                                 !- Year Escalation 10
  1.2200,                                 !- Year Escalation 11
  1.2333,                                 !- Year Escalation 12
  1.2566,                                 !- Year Escalation 13
  1.2709,                                 !- Year Escalation 14
  1.2826,                                 !- Year Escalation 15
  1.2985,                                 !- Year Escalation 16
  1.3102,                                 !- Year Escalation 17
  1.3250,                                 !- Year Escalation 18
  1.3261,                                 !- Year Escalation 19
  1.3282,                                 !- Year Escalation 20
  1.3324,                                 !- Year Escalation 21
  1.3356,                                 !- Year Escalation 22
  1.3431,                                 !- Year Escalation 23
  1.3510,                                 !- Year Escalation 24
  1.3568,                                 !- Year Escalation 25
  1.3606,                                 !- Year Escalation 26
  1.3637,                                 !- Year Escalation 27
  1.3674,                                 !- Year Escalation 28
  1.3706,                                 !- Year Escalation 29
  1.3743;                                 !- Year Escalation 30

LifeCycleCost:UsePriceEscalation,
  U.S. Avg  Commercial-Residual Oil,      !- Name
  FuelOilNo2,                             !- Resource
  2011,                                   !- Escalation Start Year
  January,                                !- Escalation Start Month
  0.8469,                                 !- Year Escalation 1
  0.8257,                                 !- Year Escalation 2
  0.8681,                                 !- Year Escalation 3
  0.8988,                                 !- Year Escalation 4
  0.9289,                                 !- Year Escalation 5
  0.9604,                                 !- Year Escalation 6
  0.9897,                                 !- Year Escalation 7
  1.0075,                                 !- Year Escalation 8
  1.0314,                                 !- Year Escalation 9
  1.0554,                                 !- Year Escalation 10
  1.0861,                                 !- Year Escalation 11
  1.1278,                                 !- Year Escalation 12
  1.1497,                                 !- Year Escalation 13
  1.1620,                                 !- Year Escalation 14
  1.1743,                                 !- Year Escalation 15
  1.1852,                                 !- Year Escalation 16
  1.1948,                                 !- Year Escalation 17
  1.2037,                                 !- Year Escalation 18
  1.2071,                                 !- Year Escalation 19
  1.2119,                                 !- Year Escalation 20
  1.2139,                                 !- Year Escalation 21
  1.2194,                                 !- Year Escalation 22
  1.2276,                                 !- Year Escalation 23
  1.2365,                                 !- Year Escalation 24
  1.2420,                                 !- Year Escalation 25
  1.2461,                                 !- Year Escalation 26
  1.2509,                                 !- Year Escalation 27
  1.2550,                                 !- Year Escalation 28
  1.2591,                                 !- Year Escalation 29
  1.2638;                                 !- Year Escalation 30

LifeCycleCost:UsePriceEscalation,
  U.S. Avg  Commercial-Natural gas,       !- Name
  NaturalGas,                             !- Resource
  2011,                                   !- Escalation Start Year
  January,                                !- Escalation Start Month
  0.9823,                                 !- Year Escalation 1
  0.9557,                                 !- Year Escalation 2
  0.9279,                                 !- Year Escalation 3
  0.9257,                                 !- Year Escalation 4
  0.9346,                                 !- Year Escalation 5
  0.9412,                                 !- Year Escalation 6
  0.9512,                                 !- Year Escalation 7
  0.9645,                                 !- Year Escalation 8
  0.9856,                                 !- Year Escalation 9
  1.0067,                                 !- Year Escalation 10
  1.0222,                                 !- Year Escalation 11
  1.0410,                                 !- Year Escalation 12
  1.0610,                                 !- Year Escalation 13
  1.0787,                                 !- Year Escalation 14
  1.0942,                                 !- Year Escalation 15
  1.1098,                                 !- Year Escalation 16
  1.1220,                                 !- Year Escalation 17
  1.1308,                                 !- Year Escalation 18
  1.1386,                                 !- Year Escalation 19
  1.1486,                                 !- Year Escalation 20
  1.1619,                                 !- Year Escalation 21
  1.1763,                                 !- Year Escalation 22
  1.1918,                                 !- Year Escalation 23
  1.2118,                                 !- Year Escalation 24
  1.2284,                                 !- Year Escalation 25
  1.2439,                                 !- Year Escalation 26
  1.2605,                                 !- Year Escalation 27
  1.2772,                                 !- Year Escalation 28
  1.2938,                                 !- Year Escalation 29
  1.3115;                                 !- Year Escalation 30

LifeCycleCost:UsePriceEscalation,
  U.S. Avg  Commercial-Coal,              !- Name
  Coal,                                   !- Resource
  2011,                                   !- Escalation Start Year
  January,                                !- Escalation Start Month
  0.9970,                                 !- Year Escalation 1
  1.0089,                                 !- Year Escalation 2
  1.0089,                                 !- Year Escalation 3
  0.9941,                                 !- Year Escalation 4
  0.9941,                                 !- Year Escalation 5
  1.0000,                                 !- Year Escalation 6
  1.0030,                                 !- Year Escalation 7
  1.0059,                                 !- Year Escalation 8
  1.0089,                                 !- Year Escalation 9
  1.0119,                                 !- Year Escalation 10
  1.0148,                                 !- Year Escalation 11
  1.0178,                                 !- Year Escalation 12
  1.0208,                                 !- Year Escalation 13
  1.0267,                                 !- Year Escalation 14
  1.0297,                                 !- Year Escalation 15
  1.0356,                                 !- Year Escalation 16
  1.0415,                                 !- Year Escalation 17
  1.0534,                                 !- Year Escalation 18
  1.0564,                                 !- Year Escalation 19
  1.0593,                                 !- Year Escalation 20
  1.0653,                                 !- Year Escalation 21
  1.0712,                                 !- Year Escalation 22
  1.0742,                                 !- Year Escalation 23
  1.0801,                                 !- Year Escalation 24
  1.0831,                                 !- Year Escalation 25
  1.0831,                                 !- Year Escalation 26
  1.0861,                                 !- Year Escalation 27
  1.0890,                                 !- Year Escalation 28
  1.0920,                                 !- Year Escalation 29
  1.0950;                                 !- Year Escalation 30

Building,
  Building 1,                             !- Name
  ,                                       !- North Axis {deg}
  ,                                       !- Terrain
  ,                                       !- Loads Convergence Tolerance Value {W}
  ,                                       !- Temperature Convergence Tolerance Value {deltaC}
  FullExterior,                           !- Solar Distribution
  ,                                       !- Maximum Number of Warmup Days
  ;                                       !- Minimum Number of Warmup Days

Zone,
  Main Zone,                              !- Name
  ,                                       !- Direction of Relative North {deg}
  0,                                      !- X Origin {m}
  0,                                      !- Y Origin {m}
  0,                                      !- Z Origin {m}
  ,                                       !- Type
  1,                                      !- Multiplier
  ,                                       !- Ceiling Height {m}
  ,                                       !- Volume {m3}
  ,                                       !- Floor Area {m2}
  ,                                       !- Zone Inside Convection Algorithm
  ,                                       !- Zone Outside Convection Algorithm
  Yes;                                    !- Part of Total Floor Area

Space,
  Main Space,                             !- Name
  Main Zone,                              !- Zone Name
  ,                                       !- Ceiling Height {m}
  ,                                       !- Volume {m3}
  ;                                       !- Floor Area {m2}

BuildingSurface:Detailed,
  surface_0_I02_50_mm_insulation_board,   !- Name
  Wall,                                   !- Surface Type
  I02_50_mm_insulation_board,             !- Construction Name
  Main Zone,                              !- Zone Name
  Main Space,                             !- Space Name
  Outdoors,                               !- Outside Boundary Condition
  ,                                       !- Outside Boundary Condition Object
  SunExposed,                             !- Sun Exposure
  WindExposed,                            !- Wind Exposure
  ,                                       !- View Factor to Ground
  ,                                       !- Number of Vertices
  -19.3866091296375, -21.526709105535, 3.97996071131748, !- X,Y,Z Vertex 1 {m}
  -20.1613373113556, -4.40813278699543, 4.96620318458321, !- X,Y,Z Vertex 2 {m}
  -23.6737263438515, -24.858664336825, 1.69630609139526; !- X,Y,Z Vertex 3 {m}

BuildingSurface:Detailed,
  surface_10_M08_200mm_lightweight_concrete_block_filled, !- Name
  Wall,                                   !- Surface Type
  M08_200mm_lightweight_concrete_block_filled, !- Construction Name
  Main Zone,                              !- Zone Name
  Main Space,                             !- Space Name
  Outdoors,                               !- Outside Boundary Condition
  ,                                       !- Outside Boundary Condition Object
  SunExposed,                             !- Sun Exposure
  WindExposed,                            !- Wind Exposure
  ,                                       !- View Factor to Ground
  ,                                       !- Number of Vertices
  -24.7100500587443, 2.70523276317434, 0, !- X,Y,Z Vertex 1 {m}
  -21.9643775983288, 21.8639812475109, 3.11816652147998, !- X,Y,Z Vertex 2 {m}
  -22.1553930998008, 28.9417739173105, 0; !- X,Y,Z Vertex 3 {m}

BuildingSurface:Detailed,
  surface_11_M08_200mm_lightweight_concrete_block_filled, !- Name
  Wall,                                   !- Surface Type
  M08_200mm_lightweight_concrete_block_filled, !- Construction Name
  Main Zone,                              !- Zone Name
  Main Space,                             !- Space Name
  Outdoors,                               !- Outside Boundary Condition
  ,                                       !- Outside Boundary Condition Object
  SunExposed,                             !- Sun Exposure
  WindExposed,                            !- Wind Exposure
  ,                                       !- View Factor to Ground
  ,                                       !- Number of Vertices
  -23.7645547826438, -4.78834617182591, 3.03802626717645, !- X,Y,Z Vertex 1 {m}
  -21.9643775983288, 21.8639812475109, 3.11816652147998, !- X,Y,Z Vertex 2 {m}
  -24.7100500587443, 2.70523276317434, 0; !- X,Y,Z Vertex 3 {m}

BuildingSurface:Detailed,
  surface_12_M16_300mm_heavyweight_concrete, !- Name
  Floor,                                  !- Surface Type
  M16_300mm_heavyweight_concrete,         !- Construction Name
  Main Zone,                              !- Zone Name
  Main Space,                             !- Space Name
  Ground,                                 !- Outside Boundary Condition
  ,                                       !- Outside Boundary Condition Object
  NoSun,                                  !- Sun Exposure
  NoWind,                                 !- Wind Exposure
  ,                                       !- View Factor to Ground
  ,                                       !- Number of Vertices
  -22.1553930998008, 28.9417739173105, 0, !- X,Y,Z Vertex 1 {m}
  -0.907185159731027, 3.95633337471182, 0, !- X,Y,Z Vertex 2 {m}
  -24.7100500587443, 2.70523276317434, 0; !- X,Y,Z Vertex 3 {m}

BuildingSurface:Detailed,
  surface_13_M16_300mm_heavyweight_concrete, !- Name
  Floor,                                  !- Surface Type
  M16_300mm_heavyweight_concrete,         !- Construction Name
  Main Zone,                              !- Zone Name
  Main Space,                             !- Space Name
  Ground,                                 !- Outside Boundary Condition
  ,                                       !- Outside Boundary Condition Object
  NoSun,                                  !- Sun Exposure
  NoWind,                                 !- Wind Exposure
  ,                                       !- View Factor to Ground
  ,                                       !- Number of Vertices
  -0.907185159731027, 3.95633337471182, 0, !- X,Y,Z Vertex 1 {m}
  21.6364968231068, -20.5390537836119, 0, !- X,Y,Z Vertex 2 {m}
  -2.98496874475437, -21.5681639074914, 0; !- X,Y,Z Vertex 3 {m}

BuildingSurface:Detailed,
  surface_14_M16_300mm_heavyweight_concrete, !- Name
  Floor,                                  !- Surface Type
  M16_300mm_heavyweight_concrete,         !- Construction Name
  Main Zone,                              !- Zone Name
  Main Space,                             !- Space Name
  Ground,                                 !- Outside Boundary Condition
  ,                                       !- Outside Boundary Condition Object
  NoSun,                                  !- Sun Exposure
  NoWind,                                 !- Wind Exposure
  ,                                       !- View Factor to Ground
  ,                                       !- Number of Vertices
  -24.7100500587443, 2.70523276317434, 0, !- X,Y,Z Vertex 1 {m}
  -2.98496874475437, -21.5681639074914, 0, !- X,Y,Z Vertex 2 {m}
  -27.1325652764822, -23.1883407397362, 0; !- X,Y,Z Vertex 3 {m}

BuildingSurface:Detailed,
  surface_15_M16_300mm_heavyweight_concrete, !- Name
  Floor,                                  !- Surface Type
  M16_300mm_heavyweight_concrete,         !- Construction Name
  Main Zone,                              !- Zone Name
  Main Space,                             !- Space Name
  Ground,                                 !- Outside Boundary Condition
  ,                                       !- Outside Boundary Condition Object
  NoSun,                                  !- Sun Exposure
  NoWind,                                 !- Wind Exposure
  ,                                       !- View Factor to Ground
  ,                                       !- Number of Vertices
  -0.907185159731027, 3.95633337471182, 0, !- X,Y,Z Vertex 1 {m}
  -2.98496874475437, -21.5681639074914, 0, !- X,Y,Z Vertex 2 {m}
  -24.7100500587443, 2.70523276317434, 0; !- X,Y,Z Vertex 3 {m}

BuildingSurface:Detailed,
  surface_16_generic_window_frame,        !- Name
  Wall,                                   !- Surface Type
  generic_window_frame,                   !- Construction Name
  Main Zone,                              !- Zone Name
  Main Space,                             !- Space Name
  Outdoors,                               !- Outside Boundary Condition
  ,                                       !- Outside Boundary Condition Object
  SunExposed,                             !- Sun Exposure
  WindExposed,                            !- Wind Exposure
  ,                                       !- View Factor to Ground
  ,                                       !- Number of Vertices
  -19.3866091296375, -21.526709105535, 3.97996071131748, !- X,Y,Z Vertex 1 {m}
  -0.70249431384905, 0.112434856630448, 5.11460430999767, !- X,Y,Z Vertex 2 {m}
  -20.1613373113556, -4.40813278699543, 4.96620318458321; !- X,Y,Z Vertex 3 {m}

FenestrationSurface:Detailed,
  subsurface_16_low_iron_3mm,             !- Name
  Window,                                 !- Surface Type
  low_iron_3mm,                           !- Construction Name
  surface_16_generic_window_frame,        !- Building Surface Name
  ,                                       !- Outside Boundary Condition Object
  ,                                       !- View Factor to Ground
  ,                                       !- Frame and Divider Name
  ,                                       !- Multiplier
  ,                                       !- Number of Vertices
  -19.3824196190935, -21.5176425818679, 3.98045684637463, !- X,Y,Z Vertex 1 {m}
  -0.710737973180524, 0.106781080335927, 5.11432701153371, !- X,Y,Z Vertex 2 {m}
  -20.1528535345545, -4.41341503266473, 4.96585188431462; !- X,Y,Z Vertex 3 {m}

BuildingSurface:Detailed,
  surface_17_generic_window_frame,        !- Name
  Wall,                                   !- Surface Type
  generic_window_frame,                   !- Construction Name
  Main Zone,                              !- Zone Name
  Main Space,                             !- Space Name
  Outdoors,                               !- Outside Boundary Condition
  ,                                       !- Outside Boundary Condition Object
  SunExposed,                             !- Sun Exposure
  WindExposed,                            !- Wind Exposure
  ,                                       !- View Factor to Ground
  ,                                       !- Number of Vertices
  -0.70249431384905, 0.112434856630448, 5.11460430999767, !- X,Y,Z Vertex 1 {m}
  16.051581825406, 21.7588129933828, 5.58445457064144, !- X,Y,Z Vertex 2 {m}
  -3.04625234630641, 18.6808665457732, 5.98158975075616; !- X,Y,Z Vertex 3 {m}

FenestrationSurface:Detailed,
  subsurface_17_low_iron_3mm,             !- Name
  Window,                                 !- Surface Type
  low_iron_3mm,                           !- Construction Name
  surface_17_generic_window_frame,        !- Building Surface Name
  ,                                       !- Outside Boundary Condition Object
  ,                                       !- View Factor to Ground
  ,                                       !- Frame and Divider Name
  ,                                       !- Multiplier
  ,                                       !- Number of Vertices
  -0.69912266073619, 0.121844113784085, 5.114917096032, !- X,Y,Z Vertex 1 {m}
  16.043349587671, 21.7531358477007, 5.58443787396267, !- X,Y,Z Vertex 2 {m}
  -3.03815567223035, 18.6750171009611, 5.9811123994213; !- X,Y,Z Vertex 3 {m}

BuildingSurface:Detailed,
  surface_18_generic_window_frame,        !- Name
  Wall,                                   !- Surface Type
  generic_window_frame,                   !- Construction Name
  Main Zone,                              !- Zone Name
  Main Space,                             !- Space Name
  Outdoors,                               !- Outside Boundary Condition
  ,                                       !- Outside Boundary Condition Object
  SunExposed,                             !- Sun Exposure
  WindExposed,                            !- Wind Exposure
  ,                                       !- View Factor to Ground
  ,                                       !- Number of Vertices
  -20.1613373113556, -4.40813278699543, 4.96620318458321, !- X,Y,Z Vertex 1 {m}
  -3.04625234630641, 18.6808665457732, 5.98158975075616, !- X,Y,Z Vertex 2 {m}
  -20.9041697654692, 13.9250428099198, 7.02009597528026; !- X,Y,Z Vertex 3 {m}

FenestrationSurface:Detailed,
  subsurface_18_low_iron_3mm,             !- Name
  Window,                                 !- Surface Type
  low_iron_3mm,                           !- Construction Name
  surface_18_generic_window_frame,        !- Building Surface Name
  ,                                       !- Outside Boundary Condition Object
  ,                                       !- View Factor to Ground
  ,                                       !- Frame and Divider Name
  ,                                       !- Multiplier
  ,                                       !- Number of Vertices
  -20.1576701871554, -4.39885487853386, 4.96689065434945, !- X,Y,Z Vertex 1 {m}
  -3.05407558807599, 18.6746378331078, 5.98159492247905, !- X,Y,Z Vertex 2 {m}
  -20.8961645011716, 13.9191994815137, 7.01876508961171; !- X,Y,Z Vertex 3 {m}

BuildingSurface:Detailed,
  surface_19_generic_window_frame,        !- Name
  Wall,                                   !- Surface Type
  generic_window_frame,                   !- Construction Name
  Main Zone,                              !- Zone Name
  Main Space,                             !- Space Name
  Outdoors,                               !- Outside Boundary Condition
  ,                                       !- Outside Boundary Condition Object
  SunExposed,                             !- Sun Exposure
  WindExposed,                            !- Wind Exposure
  ,                                       !- View Factor to Ground
  ,                                       !- Number of Vertices
  -0.70249431384905, 0.112434856630448, 5.11460430999767, !- X,Y,Z Vertex 1 {m}
  -3.04625234630641, 18.6808665457732, 5.98158975075616, !- X,Y,Z Vertex 2 {m}
  -20.1613373113556, -4.40813278699543, 4.96620318458321; !- X,Y,Z Vertex 3 {m}

FenestrationSurface:Detailed,
  subsurface_19_low_iron_3mm,             !- Name
  Window,                                 !- Surface Type
  low_iron_3mm,                           !- Construction Name
  surface_19_generic_window_frame,        !- Building Surface Name
  ,                                       !- Outside Boundary Condition Object
  ,                                       !- View Factor to Ground
  ,                                       !- Frame and Divider Name
  ,                                       !- Multiplier
  ,                                       !- Number of Vertices
  -0.710897273915438, 0.117849056543124, 5.11488126022475, !- X,Y,Z Vertex 1 {m}
  -3.04959133966949, 18.6714500670547, 5.98116424885869, !- X,Y,Z Vertex 2 {m}
  -20.1533586852697, -4.40210974206783, 4.9664570656223; !- X,Y,Z Vertex 3 {m}

BuildingSurface:Detailed,
  surface_1_generic_window_frame,         !- Name
  Wall,                                   !- Surface Type
  generic_window_frame,                   !- Construction Name
  Main Zone,                              !- Zone Name
  Main Space,                             !- Space Name
  Outdoors,                               !- Outside Boundary Condition
  ,                                       !- Outside Boundary Condition Object
  SunExposed,                             !- Sun Exposure
  WindExposed,                            !- Wind Exposure
  ,                                       !- View Factor to Ground
  ,                                       !- Number of Vertices
  -20.1613373113556, -4.40813278699543, 4.96620318458321, !- X,Y,Z Vertex 1 {m}
  -20.9041697654692, 13.9250428099198, 7.02009597528026, !- X,Y,Z Vertex 2 {m}
  -23.7645547826438, -4.78834617182591, 3.03802626717645; !- X,Y,Z Vertex 3 {m}

FenestrationSurface:Detailed,
  subsurface_1_clear_6mm,                 !- Name
  Window,                                 !- Surface Type
  clear_6mm,                              !- Construction Name
  surface_1_generic_window_frame,         !- Building Surface Name
  ,                                       !- Outside Boundary Condition Object
  ,                                       !- View Factor to Ground
  ,                                       !- Frame and Divider Name
  ,                                       !- Multiplier
  ,                                       !- Number of Vertices
  -20.1636900953088, -4.39841374507686, 4.96627124231251, !- X,Y,Z Vertex 1 {m}
  -20.9047330230701, 13.9151886228511, 7.01849044169626, !- X,Y,Z Vertex 2 {m}
  -23.761477835298, -4.77925681194826, 3.04083979379723; !- X,Y,Z Vertex 3 {m}

BuildingSurface:Detailed,
  surface_20_I02_50_mm_insulation_board,  !- Name
  Wall,                                   !- Surface Type
  I02_50_mm_insulation_board,             !- Construction Name
  Main Zone,                              !- Zone Name
  Main Space,                             !- Space Name
  Outdoors,                               !- Outside Boundary Condition
  ,                                       !- Outside Boundary Condition Object
  SunExposed,                             !- Sun Exposure
  WindExposed,                            !- Wind Exposure
  ,                                       !- View Factor to Ground
  ,                                       !- Number of Vertices
  22.9037248451853, -16.8241090693717, 4.28531993683398, !- X,Y,Z Vertex 1 {m}
  2.05819750742451, -19.4678256440173, 3.82531408179768, !- X,Y,Z Vertex 2 {m}
  22.3215249586585, -19.500592626511, 2.08509131894257; !- X,Y,Z Vertex 3 {m}

BuildingSurface:Detailed,