
OS:Version,
  {d03847fc-1d9e-4198-a1ff-c2608a048b5f}, !- Handle
  3.9.0;                                  !- Version Identifier

OS:Space,
  {1a549134-1226-427b-a14f-1f8d8555af44}, !- Handle
  Main Space,                             !- Name
  ,                                       !- Space Type Name
  ,                                       !- Default Construction Set Name
  ,                                       !- Default Schedule Set Name
  ,                                       !- Direction of Relative North {deg}
  ,                                       !- X Origin {m}
  ,                                       !- Y Origin {m}
  ,                                       !- Z Origin {m}
  ,                                       !- Building Story Name
  {77e6ff5f-60b0-40ab-9c18-2632487486c1}; !- Thermal Zone Name

OS:Construction,
  {619026ce-0055-4c01-b86c-7757c54bf2d9}, !- Handle
  M08_200mm_lightweight_concrete_block_filled, !- Name
  ,                                       !- Surface Rendering Name
  {364f3563-97ff-4e74-b50c-0eda5ca51b9d}; !- Layer 1

OS:Material,
  {364f3563-97ff-4e74-b50c-0eda5ca51b9d}, !- Handle
  M08_200mm_lightweight_concrete_block_filled, !- Name
  MediumRough,                            !- Roughness
  0.2032,                                 !- Thickness {m}
  0.26,                                   !- Conductivity {W/m-K}
  464,                                    !- Density {kg/m3}
  880,                                    !- Specific Heat {J/kg-K}
  0.9,                                    !- Thermal Absorptance
  0.7,                                    !- Solar Absorptance
  0.7;                                    !- Visible Absorptance

OS:Construction,
  {8ff32b65-5ab9-41a8-85f8-299033f42298}, !- Handle
  generic_window_frame,                   !- Name
  ,                                       !- Surface Rendering Name
  {8f5ae1e9-cad2-434c-98b8-a6700eae73cb}; !- Layer 1

OS:Material,
  {8f5ae1e9-cad2-434c-98b8-a6700eae73cb}, !- Handle
  generic_window_frame,                   !- Name
  MediumSmooth,                           !- Roughness
  0.1,                                    !- Thickness {m}
  0.17,                                   !- Conductivity {W/m-K}
  700,                                    !- Density {kg/m3}
  1000,                                   !- Specific Heat {J/kg-K}
  0.9,                                    !- Thermal Absorptance
  0.7,                                    !- Solar Absorptance
  0.7;                                    !- Visible Absorptance

OS:Construction,
  {7f7ddf3b-35b9-479d-bdf4-fb2ef701d4d6}, !- Handle
  clear_6mm,                              !- Name
  ,                                       !- Surface Rendering Name
  {e3f0b91c-e87a-4f2b-8ad5-f316cb4e2576}; !- Layer 1

OS:WindowMaterial:Glazing,
  {e3f0b91c-e87a-4f2b-8ad5-f316cb4e2576}, !- Handle
  clear_6mm,                              !- Name
  SpectralAverage,                        !- Optical Data Type
  ,                                       !- Window Glass Spectral Data Set Name
  0.006,                                  !- Thickness {m}
  0.775,                                  !- Solar Transmittance at Normal Incidence
  0.071,                                  !- Front Side Solar Reflectance at Normal Incidence
  0.071,                                  !- Back Side Solar Reflectance at Normal Incidence
  0.881,                                  !- Visible Transmittance at Normal Incidence
  0.08,                                   !- Front Side Visible Reflectance at Normal Incidence
  0.08,                                   !- Back Side Visible Reflectance at Normal Incidence
  0,                                      !- Infrared Transmittance at Normal Incidence
  0.84,                                   !- Front Side Infrared Hemispherical Emissivity
  0.84,                                   !- Back Side Infrared Hemispherical Emissivity
  0.9;                                    !- Conductivity {W/m-K}

OS:Construction,
  {d090abac-321a-47b2-b242-1a523518561c}, !- Handle
  low_iron_3mm,                           !- Name
  ,                                       !- Surface Rendering Name
  {0381c267-28fa-4f77-8a0e-9de8a527f30f}; !- Layer 1

OS:WindowMaterial:Glazing,
  {0381c267-28fa-4f77-8a0e-9de8a527f30f}, !- Handle
  low_iron_3mm,                           !- Name
  SpectralAverage,                        !- Optical Data Type
  ,                                       !- Window Glass Spectral Data Set Name
  0.003,                                  !- Thickness {m}
  0.899,                                  !- Solar Transmittance at Normal Incidence
  0.079,                                  !- Front Side Solar Reflectance at Normal Incidence
  0.079,                                  !- Back Side Solar Reflectance at Normal Incidence
  0.913,                                  !- Visible Transmittance at Normal Incidence
  0.082,                                  !- Front Side Visible Reflectance at Normal Incidence
  0.082,                                  !- Back Side Visible Reflectance at Normal Incidence
  0,                                      !- Infrared Transmittance at Normal Incidence
  0.84,                                   !- Front Side Infrared Hemispherical Emissivity
  0.84,                                   !- Back Side Infrared Hemispherical Emissivity
  0.9;                                    !- Conductivity {W/m-K}

OS:Construction,
  {61a54219-0483-45ed-8ab4-ed70479bc789}, !- Handle
  M16_300mm_heavyweight_concrete,         !- Name
  ,                                       !- Surface Rendering Name
  {f792deca-8eae-467c-9afc-6be48a779e84}; !- Layer 1

OS:Material,
  {f792deca-8eae-467c-9afc-6be48a779e84}, !- Handle
  M16_300mm_heavyweight_concrete,         !- Name
  MediumRough,                            !- Roughness
  0.3048,                                 !- Thickness {m}
  1.95,                                   !- Conductivity {W/m-K}
  2240,                                   !- Density {kg/m3}
  900,                                    !- Specific Heat {J/kg-K}
  0.9,                                    !- Thermal Absorptance
  0.7,                                    !- Solar Absorptance
  0.7;                                    !- Visible Absorptance

OS:Construction,
  {e7c92d7a-0f6a-41a2-a851-29f8badfbc3e}, !- Handle
  I02_50_mm_insulation_board,             !- Name
  ,                                       !- Surface Rendering Name
  {6e95101c-8060-43e8-a76b-80312ee08a3c}; !- Layer 1

OS:Material,
  {6e95101c-8060-43e8-a76b-80312ee08a3c}, !- Handle
  I02_50_mm_insulation_board,             !- Name
  MediumRough,                            !- Roughness
  0.0508,                                 !- Thickness {m}
  0.03,                                   !- Conductivity {W/m-K}
  43,                                     !- Density {kg/m3}
  1210,                                   !- Specific Heat {J/kg-K}
  0.9,                                    !- Thermal Absorptance
  0.7,                                    !- Solar Absorptance
  0.7;                                    !- Visible Absorptance

OS:Surface,
  {6e425ee6-34a8-43bc-9680-487c294d2359}, !- Handle
  surface_0_I02_50_mm_insulation_board,   !- Name
  Wall,                                   !- Surface Type
  {e7c92d7a-0f6a-41a2-a851-29f8badfbc3e}, !- Construction Name
  {1a549134-1226-427b-a14f-1f8d8555af44}, !- Space Name
  Outdoors,                               !- Outside Boundary Condition
  ,                                       !- Outside Boundary Condition Object
  SunExposed,                             !- Sun Exposure
  WindExposed,                            !- Wind Exposure
  ,                                       !- View Factor to Ground
  ,                                       !- Number of Vertices
  -19.3866091296375, -21.526709105535, 3.97996071131748, !- X,Y,Z Vertex 1 {m}
  -20.1613373113556, -4.40813278699543, 4.96620318458321, !- X,Y,Z Vertex 2 {m}
  -23.6737263438515, -24.858664336825, 1.69630609139526; !- X,Y,Z Vertex 3 {m}

OS:Surface,
  {dce8a097-b0c3-4f4a-af0d-e90adc92433c}, !- Handle
  surface_1_generic_window_frame,         !- Name
  Wall,                                   !- Surface Type
  {8ff32b65-5ab9-41a8-85f8-299033f42298}, !- Construction Name
  {1a549134-1226-427b-a14f-1f8d8555af44}, !- Space Name
  Outdoors,                               !- Outside Boundary Condition
  ,                                       !- Outside Boundary Condition Object
  SunExposed,                             !- Sun Exposure
  WindExposed,                            !- Wind Exposure
  ,                                       !- View Factor to Ground
  ,                                       !- Number of Vertices
  -20.1613373113556, -4.40813278699543, 4.96620318458321, !- X,Y,Z Vertex 1 {m}
  -20.9041697654692, 13.9250428099198, 7.02009597528026, !- X,Y,Z Vertex 2 {m}
  -23.7645547826438, -4.78834617182591, 3.03802626717645; !- X,Y,Z Vertex 3 {m}

OS:SubSurface,
  {faeb976f-03ea-4c91-ae18-57ddb5b7fb8a}, !- Handle
  subsurface_1_clear_6mm,                 !- Name
  FixedWindow,                            !- Sub Surface Type
  {7f7ddf3b-35b9-479d-bdf4-fb2ef701d4d6}, !- Construction Name
  {dce8a097-b0c3-4f4a-af0d-e90adc92433c}, !- Surface Name
  ,                                       !- Outside Boundary Condition Object
  ,                                       !- View Factor to Ground
  ,                                       !- Frame and Divider Name
  ,                                       !- Multiplier
  ,                                       !- Number of Vertices
  -20.1636900953088, -4.39841374507686, 4.96627124231251, !- X,Y,Z Vertex 1 {m}
  -20.9047330230701, 13.9151886228511, 7.01849044169626, !- X,Y,Z Vertex 2 {m}
  -23.761477835298, -4.77925681194826, 3.04083979379723; !- X,Y,Z Vertex 3 {m}

OS:Surface,
  {2c1193e4-14d4-4c4e-8c10-f2b3a7aa0d4a}, !- Handle
  surface_2_generic_window_frame,         !- Name
  Wall,                                   !- Surface Type
  {8ff32b65-5ab9-41a8-85f8-299033f42298}, !- Construction Name
  {1a549134-1226-427b-a14f-1f8d8555af44}, !- Space Name
  Outdoors,                               !- Outside Boundary Condition
  ,                                       !- Outside Boundary Condition Object
  SunExposed,                             !- Sun Exposure
  WindExposed,                            !- Wind Exposure
  ,                                       !- View Factor to Ground
  ,                                       !- Number of Vertices
  -23.6737263438515, -24.858664336825, 1.69630609139526, !- X,Y,Z Vertex 1 {m}
  -23.7645547826438, -4.78834617182591, 3.03802626717645, !- X,Y,Z Vertex 2 {m}
  -27.1325652764822, -23.1883407397362, 0; !- X,Y,Z Vertex 3 {m}

OS:SubSurface,
  {15760ff6-a293-48da-a0ab-5bd1e73cefe3}, !- Handle
  subsurface_2_clear_6mm,                 !- Name
  FixedWindow,                            !- Sub Surface Type
  {7f7ddf3b-35b9-479d-bdf4-fb2ef701d4d6}, !- Construction Name
  {2c1193e4-14d4-4c4e-8c10-f2b3a7aa0d4a}, !- Surface Name
  ,                                       !- Outside Boundary Condition Object
  ,                                       !- View Factor to Ground
  ,                                       !- Frame and Divider Name
  ,                                       !- Multiplier
  ,                                       !- Number of Vertices
  -23.6753375314309, -24.8487962989754, 1.69614514549152, !- X,Y,Z Vertex 1 {m}
  -23.7653981724279, -4.7982465887706, 3.03689913009809, !- X,Y,Z Vertex 2 {m}
  -27.1289104328408, -23.1793842903186, 0.00253458710392823; !- X,Y,Z Vertex 3 {m}

OS:Surface,
  {3cd8a867-d919-423b-b543-795f5b2e9c9b}, !- Handle
  surface_3_I02_50_mm_insulation_board,   !- Name
  Wall,                                   !- Surface Type
  {e7c92d7a-0f6a-41a2-a851-29f8badfbc3e}, !- Construction Name
  {1a549134-1226-427b-a14f-1f8d8555af44}, !- Space Name
  Outdoors,                               !- Outside Boundary Condition
  ,                                       !- Outside Boundary Condition Object
  SunExposed,                             !- Sun Exposure
  WindExposed,                            !- Wind Exposure
  ,                                       !- View Factor to Ground
  ,                                       !- Number of Vertices
  -20.1613373113556, -4.40813278699543, 4.96620318458321, !- X,Y,Z Vertex 1 {m}
  -23.7645547826438, -4.78834617182591, 3.03802626717645, !- X,Y,Z Vertex 2 {m}
  -23.6737263438515, -24.858664336825, 1.69630609139526; !- X,Y,Z Vertex 3 {m}

OS:Surface,
  {343974dc-daeb-4ebd-ad75-6f5b3c58afc5}, !- Handle
  surface_4_generic_window_frame,         !- Name
  Wall,                                   !- Surface Type
  {8ff32b65-5ab9-41a8-85f8-299033f42298}, !- Construction Name
  {1a549134-1226-427b-a14f-1f8d8555af44}, !- Space Name
  Outdoors,                               !- Outside Boundary Condition
  ,                                       !- Outside Boundary Condition Object
  SunExposed,                             !- Sun Exposure
  WindExposed,                            !- Wind Exposure
  ,                                       !- View Factor to Ground
  ,                                       !- Number of Vertices
  21.6364968231068, -20.5390537836119, 0, !- X,Y,Z Vertex 1 {m}
  -0.0475116145050939, -22.3120369903447, 2.14159377862575, !- X,Y,Z Vertex 2 {m}
  -2.98496874475437, -21.5681639074914, 0; !- X,Y,Z Vertex 3 {m}

OS:SubSurface,
  {c254c046-4514-4fb4-a7bf-6b03ec0bb6d6}, !- Handle
  subsurface_4_clear_6mm,                 !- Name
  FixedWindow,                            !- Sub Surface Type
  {7f7ddf3b-35b9-479d-bdf4-fb2ef701d4d6}, !- Construction Name
  {343974dc-daeb-4ebd-ad75-6f5b3c58afc5}, !- Surface Name
  ,                                       !- Outside Boundary Condition Object
  ,                                       !- View Factor to Ground
  ,                                       !- Frame and Divider Name
  ,                                       !- Multiplier
  ,                                       !- Number of Vertices
  21.6265257017449, -20.5396571682714, 0.00046115695677917, !- X,Y,Z Vertex 1 {m}
  -0.0378452770081012, -22.3107392165874, 2.13938522645995, !- X,Y,Z Vertex 2 {m}
  -2.97499933338641, -21.5680607232911, 0.000774719302204333; !- X,Y,Z Vertex 3 {m}

OS:Surface,
  {5e5e836b-5e61-4e07-8cf6-8f3cfb6314bd}, !- Handle
  surface_5_generic_window_frame,         !- Name
  Wall,                                   !- Surface Type
  {8ff32b65-5ab9-41a8-85f8-299033f42298}, !- Construction Name
  {1a549134-1226-427b-a14f-1f8d8555af44}, !- Space Name
  Outdoors,                               !- Outside Boundary Condition
  ,                                       !- Outside Boundary Condition Object
  SunExposed,                             !- Sun Exposure
  WindExposed,                            !- Wind Exposure
  ,                                       !- View Factor to Ground
  ,                                       !- Number of Vertices
  -0.0475116145050939, -22.3120369903447, 2.14159377862575, !- X,Y,Z Vertex 1 {m}
  -19.3866091296375, -21.526709105535, 3.97996071131748, !- X,Y,Z Vertex 2 {m}
  -23.6737263438515, -24.858664336825, 1.69630609139526; !- X,Y,Z Vertex 3 {m}

OS:SubSurface,
  {e02ab738-24e2-4b23-ada5-e1b83f5aea14}, !- Handle
  subsurface_5_clear_6mm,                 !- Name
  FixedWindow,                            !- Sub Surface Type
  {7f7ddf3b-35b9-479d-bdf4-fb2ef701d4d6}, !- Construction Name
  {5e5e836b-5e61-4e07-8cf6-8f3cfb6314bd}, !- Surface Name
  ,                                       !- Outside Boundary Condition Object
  ,                                       !- View Factor to Ground
  ,                                       !- Frame and Divider Name
  ,                                       !- Multiplier
  ,                                       !- Number of Vertices
  -0.0574979837141905, -22.312446366788, 2.14191757014398, !- X,Y,Z Vertex 1 {m}
  -19.3772833435652, -21.5292600590157, 3.97740682203403, !- X,Y,Z Vertex 2 {m}
  -23.6639854667864, -24.8566128959464, 1.69725840663965; !- X,Y,Z Vertex 3 {m}

OS:Surface,
  {f8ae4de2-0975-43f2-8966-fc6be232194e}, !- Handle
  surface_6_I02_50_mm_insulation_board,   !- Name
  Wall,                                   !- Surface Type
  {e7c92d7a-0f6a-41a2-a851-29f8badfbc3e}, !- Construction Name
  {1a549134-1226-427b-a14f-1f8d8555af44}, !- Space Name
  Outdoors,                               !- Outside Boundary Condition
  ,                                       !- Outside Boundary Condition Object
  SunExposed,                             !- Sun Exposure
  WindExposed,                            !- Wind Exposure
  ,                                       !- View Factor to Ground
  ,                                       !- Number of Vertices
  -2.98496874475437, -21.5681639074914, 0, !- X,Y,Z Vertex 1 {m}
  -23.6737263438515, -24.858664336825, 1.69630609139526, !- X,Y,Z Vertex 2 {m}
  -27.1325652764822, -23.1883407397362, 0; !- X,Y,Z Vertex 3 {m}

OS:Surface,
  {b50ad883-389c-4198-8e67-2f93bffd3ada}, !- Handle
  surface_7_generic_window_frame,         !- Name
  Wall,                                   !- Surface Type
  {8ff32b65-5ab9-41a8-85f8-299033f42298}, !- Construction Name
  {1a549134-1226-427b-a14f-1f8d8555af44}, !- Space Name
  Outdoors,                               !- Outside Boundary Condition
  ,                                       !- Outside Boundary Condition Object
  SunExposed,                             !- Sun Exposure
  WindExposed,                            !- Wind Exposure
  ,                                       !- View Factor to Ground
  ,                                       !- Number of Vertices
  -0.0475116145050939, -22.3120369903447, 2.14159377862575, !- X,Y,Z Vertex 1 {m}
  -23.6737263438515, -24.858664336825, 1.69630609139526, !- X,Y,Z Vertex 2 {m}
  -2.98496874475437, -21.5681639074914, 0; !- X,Y,Z Vertex 3 {m}

OS:SubSurface,
  {5b914096-07e0-48a4-b43c-214b2be9a5c1}, !- Handle
  subsurface_7_clear_6mm,                 !- Name
  FixedWindow,                            !- Sub Surface Type
  {7f7ddf3b-35b9-479d-bdf4-fb2ef701d4d6}, !- Construction Name
  {b50ad883-389c-4198-8e67-2f93bffd3ada}, !- Surface Name
  ,                                       !- Outside Boundary Condition Object
  ,                                       !- View Factor to Ground
  ,                                       !- Frame and Divider Name
  ,                                       !- Multiplier
  ,                                       !- Number of Vertices
  -0.0574419033285725, -22.3127109133855, 2.14062672556758, !- X,Y,Z Vertex 1 {m}
  -23.6638158616267, -24.8573589371367, 1.69602631697578, !- X,Y,Z Vertex 2 {m}
  -2.99451032693834, -21.5703324419317, 0.0020629270000763; !- X,Y,Z Vertex 3 {m}

OS:Surface,
  {0a050680-45ae-40c1-89e4-459ed6933a39}, !- Handle
  surface_8_M08_200mm_lightweight_concrete_block_filled, !- Name
  Wall,                                   !- Surface Type
  {619026ce-0055-4c01-b86c-7757c54bf2d9}, !- Construction Name
  {1a549134-1226-427b-a14f-1f8d8555af44}, !- Space Name
  Outdoors,                               !- Outside Boundary Condition
  ,                                       !- Outside Boundary Condition Object
  SunExposed,                             !- Sun Exposure
  WindExposed,                            !- Wind Exposure
  ,                                       !- View Factor to Ground
  ,                                       !- Number of Vertices
  -27.1325652764822, -23.1883407397362, 0, !- X,Y,Z Vertex 1 {m}
  -23.7645547826438, -4.78834617182591, 3.03802626717645, !- X,Y,Z Vertex 2 {m}
  -24.7100500587443, 2.70523276317434, 0; !- X,Y,Z Vertex 3 {m}

OS:Surface,
  {d6474ac4-d65d-495c-8ca2-ccc6d1d6ddd5}, !- Handle
  surface_9_M08_200mm_lightweight_concrete_block_filled, !- Name
  Wall,                                   !- Surface Type
  {619026ce-0055-4c01-b86c-7757c54bf2d9}, !- Construction Name
  {1a549134-1226-427b-a14f-1f8d8555af44}, !- Space Name
  Outdoors,                               !- Outside Boundary Condition
  ,                                       !- Outside Boundary Condition Object
  SunExposed,                             !- Sun Exposure
  WindExposed,                            !- Wind Exposure
  ,                                       !- View Factor to Ground
  ,                                       !- Number of Vertices
  -23.7645547826438, -4.78834617182591, 3.03802626717645, !- X,Y,Z Vertex 1 {m}
  -20.9041697654692, 13.9250428099198, 7.02009597528026, !- X,Y,Z Vertex 2 {m}
  -21.9643775983288, 21.8639812475109, 3.11816652147998; !- X,Y,Z Vertex 3 {m}

OS:Surface,
  {521862ae-f08b-499d-823d-b03139bb70b1}, !- Handle
  surface_10_M08_200mm_lightweight_concrete_block_filled, !- Name
  Wall,                                   !- Surface Type
  {619026ce-0055-4c01-b86c-7757c54bf2d9}, !- Construction Name
  {1a549134-1226-427b-a14f-1f8d8555af44}, !- Space Name
  Outdoors,                               !- Outside Boundary Condition
  ,                                       !- Outside Boundary Condition Object
  SunExposed,                             !- Sun Exposure
  WindExposed,                            !- Wind Exposure
  ,                                       !- View Factor to Ground
  ,                                       !- Number of Vertices
  -24.7100500587443, 2.70523276317434, 0, !- X,Y,Z Vertex 1 {m}
  -21.9643775983288, 21.8639812475109, 3.11816652147998, !- X,Y,Z Vertex 2 {m}
  -22.1553930998008, 28.9417739173105, 0; !- X,Y,Z Vertex 3 {m}

OS:Surface,
  {1beedfb0-249c-4574-91a0-b3ea333e22b4}, !- Handle
  surface_11_M08_200mm_lightweight_concrete_block_filled, !- Name
  Wall,                                   !- Surface Type
  {619026ce-0055-4c01-b86c-7757c54bf2d9}, !- Construction Name
  {1a549134-1226-427b-a14f-1f8d8555af44}, !- Space Name
  Outdoors,                               !- Outside Boundary Condition
  ,                                       !- Outside Boundary Condition Object
  SunExposed,                             !- Sun Exposure
  WindExposed,                            !- Wind Exposure
  ,                                       !- View Factor to Ground
  ,                                       !- Number of Vertices
  -23.7645547826438, -4.78834617182591, 3.03802626717645, !- X,Y,Z Vertex 1 {m}
  -21.9643775983288, 21.8639812475109, 3.11816652147998, !- X,Y,Z Vertex 2 {m}
  -24.7100500587443, 2.70523276317434, 0; !- X,Y,Z Vertex 3 {m}

OS:Surface,
  {1a25206a-e8d5-4ff8-add8-b8c4af31d9c0}, !- Handle
  surface_12_M16_300mm_heavyweight_concrete, !- Name
  Floor,                                  !- Surface Type
  {61a54219-0483-45ed-8ab4-ed70479bc789}, !- Construction Name
  {1a549134-1226-427b-a14f-1f8d8555af44}, !- Space Name
  Ground,                                 !- Outside Boundary Condition
  ,                                       !- Outside Boundary Condition Object
  NoSun,                                  !- Sun Exposure
  NoWind,                                 !- Wind Exposure
  ,                                       !- View Factor to Ground
  ,                                       !- Number of Vertices
  -22.1553930998008, 28.9417739173105, 0, !- X,Y,Z Vertex 1 {m}
  -0.907185159731027, 3.95633337471182, 0, !- X,Y,Z Vertex 2 {m}
  -24.7100500587443, 2.70523276317434, 0; !- X,Y,Z Vertex 3 {m}

OS:Surface,
  {852a1a61-bb48-440c-9f3a-4cf0f9e1d579}, !- Handle
  surface_13_M16_300mm_heavyweight_concrete, !- Name
  Floor,                                  !- Surface Type
  {61a54219-0483-45ed-8ab4-ed70479bc789}, !- Construction Name
  {1a549134-1226-427b-a14f-1f8d8555af44}, !- Space Name
  Ground,                                 !- Outside Boundary Condition
  ,                                       !- Outside Boundary Condition Object
  NoSun,                                  !- Sun Exposure
  NoWind,                                 !- Wind Exposure
  ,                                       !- View Factor to Ground
  ,                                       !- Number of Vertices
  -0.907185159731027, 3.95633337471182, 0, !- X,Y,Z Vertex 1 {m}
  21.6364968231068, -20.5390537836119, 0, !- X,Y,Z Vertex 2 {m}
  -2.98496874475437, -21.5681639074914, 0; !- X,Y,Z Vertex 3 {m}

OS:Surface,
  {5751a952-36b3-420b-b15c-ba63d1403d9f}, !- Handle
  surface_14_M16_300mm_heavyweight_concrete, !- Name
  Floor,                                  !- Surface Type
  {61a54219-0483-45ed-8ab4-ed70479bc789}, !- Construction Name
  {1a549134-1226-427b-a14f-1f8d8555af44}, !- Space Name
  Ground,                                 !- Outside Boundary Condition
  ,                                       !- Outside Boundary Condition Object
  NoSun,                                  !- Sun Exposure
  NoWind,                                 !- Wind Exposure
  ,                                       !- View Factor to Ground
  ,                                       !- Number of Vertices
  -24.7100500587443, 2.70523276317434, 0, !- X,Y,Z Vertex 1 {m}
  -2.98496874475437, -21.5681639074914, 0, !- X,Y,Z Vertex 2 {m}
  -27.1325652764822, -23.1883407397362, 0; !- X,Y,Z Vertex 3 {m}

OS:Surface,
  {9c7d8b24-7360-45f6-b1cd-1b90e07c3ff6}, !- Handle
  surface_15_M16_300mm_heavyweight_concrete, !- Name
  Floor,                                  !- Surface Type
  {61a54219-0483-45ed-8ab4-ed70479bc789}, !- Construction Name
  {1a549134-1226-427b-a14f-1f8d8555af44}, !- Space Name
  Ground,                                 !- Outside Boundary Condition
  ,                                       !- Outside Boundary Condition Object
  NoSun,                                  !- Sun Exposure
  NoWind,                                 !- Wind Exposure
  ,                                       !- View Factor to Ground
  ,                                       !- Number of Vertices
  -0.907185159731027, 3.95633337471182, 0, !- X,Y,Z Vertex 1 {m}
  -2.98496874475437, -21.5681639074914, 0, !- X,Y,Z Vertex 2 {m}
  -24.7100500587443, 2.70523276317434, 0; !- X,Y,Z Vertex 3 {m}

OS:Surface,
  {1b6de94b-2278-4cd4-a9f8-cca633baa622}, !- Handle
  surface_16_generic_window_frame,        !- Name
  Wall,                                   !- Surface Type
  {8ff32b65-5ab9-41a8-85f8-299033f42298}, !- Construction Name
  {1a549134-1226-427b-a14f-1f8d8555af44}, !- Space Name
  Outdoors,                               !- Outside Boundary Condition
  ,                                       !- Outside Boundary Condition Object
  SunExposed,                             !- Sun Exposure
  WindExposed,                            !- Wind Exposure
  ,                                       !- View Factor to Ground
  ,                                       !- Number of Vertices
  -19.3866091296375, -21.526709105535, 3.97996071131748, !- X,Y,Z Vertex 1 {m}
  -0.70249431384905, 0.112434856630448, 5.11460430999767, !- X,Y,Z Vertex 2 {m}
  -20.1613373113556, -4.40813278699543, 4.96620318458321; !- X,Y,Z Vertex 3 {m}

OS:SubSurface,
  {8e67bc95-1db5-4828-ab47-f307ae65d2f4}, !- Handle
  subsurface_16_low_iron_3mm,             !- Name
  FixedWindow,                            !- Sub Surface Type
  {d090abac-321a-47b2-b242-1a523518561c}, !- Construction Name
  {1b6de94b-2278-4cd4-a9f8-cca633baa622}, !- Surface Name
  ,                                       !- Outside Boundary Condition Object
  ,                                       !- View Factor to Ground
  ,                                       !- Frame and Divider Name
  ,                                       !- Multiplier
  ,                                       !- Number of Vertices
  -19.3824196190935, -21.5176425818679, 3.98045684637463, !- X,Y,Z Vertex 1 {m}
  -0.710737973180524, 0.106781080335927, 5.11432701153371, !- X,Y,Z Vertex 2 {m}
  -20.1528535345545, -4.41341503266473, 4.96585188431462; !- X,Y,Z Vertex 3 {m}

OS:Surface,
  {35efd22d-9df4-45e1-b6f9-b28919503bcf}, !- Handle
  surface_17_generic_window_frame,        !- Name
  Wall,                                   !- Surface Type
  {8ff32b65-5ab9-41a8-85f8-299033f42298}, !- Construction Name
  {1a549134-1226-427b-a14f-1f8d8555af44}, !- Space Name
  Outdoors,                               !- Outside Boundary Condition
  ,                                       !- Outside Boundary Condition Object
  SunExposed,                             !- Sun Exposure
  WindExposed,                            !- Wind Exposure
  ,                                       !- View Factor to Ground
  ,                                       !- Number of Vertices
  -0.70249431384905, 0.112434856630448, 5.11460430999767, !- X,Y,Z Vertex 1 {m}
  16.051581825406, 21.7588129933828, 5.58445457064144, !- X,Y,Z Vertex 2 {m}
  -3.04625234630641, 18.6808665457732, 5.98158975075616; !- X,Y,Z Vertex 3 {m}

OS:SubSurface,
  {f26d3cbd-963d-48bd-8e86-51a47b820342}, !- Handle
  subsurface_17_low_iron_3mm,             !- Name
  FixedWindow,                            !- Sub Surface Type
  {d090abac-321a-47b2-b242-1a523518561c}, !- Construction Name
  {35efd22d-9df4-45e1-b6f9-b28919503bcf}, !- Surface Name
  ,                                       !- Outside Boundary Condition Object
  ,                                       !- View Factor to Ground
  ,                                       !- Frame and Divider Name
  ,                                       !- Multiplier
  ,                                       !- Number of Vertices
  -0.69912266073619, 0.121844113784085, 5.114917096032, !- X,Y,Z Vertex 1 {m}
  16.043349587671, 21.7531358477007, 5.58443787396267, !- X,Y,Z Vertex 2 {m}
  -3.03815567223035, 18.6750171009611, 5.9811123994213; !- X,Y,Z Vertex 3 {m}

OS:Surface,
  {e23d9ef8-ef25-4342-8767-7760a8fc2cf8}, !- Handle
  surface_18_generic_window_frame,        !- Name
  Wall,                                   !- Surface Type