
OS:Version,
  {4145f8af-50d7-48f5-9cfe-2f242b2b6cec}, !- Handle
  3.9.0;                                  !- Version Identifier

OS:Space,
  {3ec8f894-c38c-4936-8599-fe1c235ef9be}, !- Handle
  Main Space,                             !- Name
  ,                                       !- Space Type Name
  ,                                       !- Default Construction Set Name
  ,                                       !- Default Schedule Set Name
  ,                                       !- Direction of Relative North {deg}
  ,                                       !- X Origin {m}
  ,                                       !- Y Origin {m}
  ,                                       !- Z Origin {m}
  ,                                       !- Building Story Name
  {64ff3158-599e-4961-b141-8302ce7b23e8}; !- Thermal Zone Name

OS:Construction,
  {0e8fc312-873f-4e37-8fb3-095834161bce}, !- Handle
  M08_200mm_lightweight_concrete_block_filled, !- Name
  ,                                       !- Surface Rendering Name
  {32ae59c3-685b-40a0-8f5b-9975ffad5849}; !- Layer 1

OS:Material,
  {32ae59c3-685b-40a0-8f5b-9975ffad5849}, !- Handle
  M08_200mm_lightweight_concrete_block_filled, !- Name
  MediumRough,                            !- Roughness
  0.2032,                                 !- Thickness {m}
  0.26,                                   !- Conductivity {W/m-K}
  464,                                    !- Density {kg/m3}
  880,                                    !- Specific Heat {J/kg-K}
  0.9,                                    !- Thermal Absorptance
  0.7,                                    !- Solar Absorptance
  0.7;                                    !- Visible Absorptance

OS:Construction,
  {178f2397-e42b-440d-bdcc-0a069e6f3fc2}, !- Handle
  generic_window_frame,                   !- Name
  ,                                       !- Surface Rendering Name
  {d74dce10-3e0e-4c9b-b2df-7cbf23013c42}; !- Layer 1

OS:Material,
  {d74dce10-3e0e-4c9b-b2df-7cbf23013c42}, !- Handle
  generic_window_frame,                   !- Name
  MediumSmooth,                           !- Roughness
  0.1,                                    !- Thickness {m}
  0.17,                                   !- Conductivity {W/m-K}
  700,                                    !- Density {kg/m3}
  1000,                                   !- Specific Heat {J/kg-K}
  0.9,                                    !- Thermal Absorptance
  0.7,                                    !- Solar Absorptance
  0.7;                                    !- Visible Absorptance

OS:Construction,
  {b1a2126c-a52c-46a7-bf3c-750a59e6ad04}, !- Handle
  clear_6mm,                              !- Name
  ,                                       !- Surface Rendering Name
  {59fdf33f-0a0e-4f51-ae64-6b7e0b24bd44}; !- Layer 1

OS:WindowMaterial:Glazing,
  {59fdf33f-0a0e-4f51-ae64-6b7e0b24bd44}, !- Handle
  clear_6mm,                              !- Name
  SpectralAverage,                        !- Optical Data Type
  ,                                       !- Window Glass Spectral Data Set Name
  0.006,                                  !- Thickness {m}
  0.775,                                  !- Solar Transmittance at Normal Incidence
  0.071,                                  !- Front Side Solar Reflectance at Normal Incidence
  0.071,                                  !- Back Side Solar Reflectance at Normal Incidence
  0.881,                                  !- Visible Transmittance at Normal Incidence
  0.08,                                   !- Front Side Visible Reflectance at Normal Incidence
  0.08,                                   !- Back Side Visible Reflectance at Normal Incidence
  0,                                      !- Infrared Transmittance at Normal Incidence
  0.84,                                   !- Front Side Infrared Hemispherical Emissivity
  0.84,                                   !- Back Side Infrared Hemispherical Emissivity
  0.9;                                    !- Conductivity {W/m-K}

OS:Construction,
  {c15802da-e558-403e-be34-a92628c80043}, !- Handle
  low_iron_3mm,                           !- Name
  ,                                       !- Surface Rendering Name
  {4a6d2b5c-d0e4-4398-beaa-e4bdc2f24ea0}; !- Layer 1

OS:WindowMaterial:Glazing,
  {4a6d2b5c-d0e4-4398-beaa-e4bdc2f24ea0}, !- Handle
  low_iron_3mm,                           !- Name
  SpectralAverage,                        !- Optical Data Type
  ,                                       !- Window Glass Spectral Data Set Name
  0.003,                                  !- Thickness {m}
  0.899,                                  !- Solar Transmittance at Normal Incidence
  0.079,                                  !- Front Side Solar Reflectance at Normal Incidence
  0.079,                                  !- Back Side Solar Reflectance at Normal Incidence
  0.913,                                  !- Visible Transmittance at Normal Incidence
  0.082,                                  !- Front Side Visible Reflectance at Normal Incidence
  0.082,                                  !- Back Side Visible Reflectance at Normal Incidence
  0,                                      !- Infrared Transmittance at Normal Incidence
  0.84,                                   !- Front Side Infrared Hemispherical Emissivity
  0.84,                                   !- Back Side Infrared Hemispherical Emissivity
  0.9;                                    !- Conductivity {W/m-K}

OS:Construction,
  {60aa229c-2ea3-4d08-8699-038162817ec7}, !- Handle
  M16_300mm_heavyweight_concrete,         !- Name
  ,                                       !- Surface Rendering Name
  {963866a8-61df-4c26-bc7b-a2ad84b98275}; !- Layer 1

OS:Material,
  {963866a8-61df-4c26-bc7b-a2ad84b98275}, !- Handle
  M16_300mm_heavyweight_concrete,         !- Name
  MediumRough,                            !- Roughness
  0.3048,                                 !- Thickness {m}
  1.95,                                   !- Conductivity {W/m-K}
  2240,                                   !- Density {kg/m3}
  900,                                    !- Specific Heat {J/kg-K}
  0.9,                                    !- Thermal Absorptance
  0.7,                                    !- Solar Absorptance
  0.7;                                    !- Visible Absorptance

OS:Construction,
  {37244e5c-4b6d-48bd-81f8-a6ab92695829}, !- Handle
  I02_50_mm_insulation_board,             !- Name
  ,                                       !- Surface Rendering Name
  {53235494-e953-4b3b-8a23-fba2a737a921}; !- Layer 1

OS:Material,
  {53235494-e953-4b3b-8a23-fba2a737a921}, !- Handle
  I02_50_mm_insulation_board,             !- Name
  MediumRough,                            !- Roughness
  0.0508,                                 !- Thickness {m}
  0.03,                                   !- Conductivity {W/m-K}
  43,                                     !- Density {kg/m3}
  1210,                                   !- Specific Heat {J/kg-K}
  0.9,                                    !- Thermal Absorptance
  0.7,                                    !- Solar Absorptance
  0.7;                                    !- Visible Absorptance

OS:Surface,
  {90de8c06-12d5-445b-a8e9-ecaaa282fd0e}, !- Handle
  surface_0_I02_50_mm_insulation_board,   !- Name
  Wall,                                   !- Surface Type
  {37244e5c-4b6d-48bd-81f8-a6ab92695829}, !- Construction Name
  {3ec8f894-c38c-4936-8599-fe1c235ef9be}, !- Space Name
  Outdoors,                               !- Outside Boundary Condition
  ,                                       !- Outside Boundary Condition Object
  SunExposed,                             !- Sun Exposure
  WindExposed,                            !- Wind Exposure
  ,                                       !- View Factor to Ground
  ,                                       !- Number of Vertices
  -19.387356075929, -21.5274497206793, 3.97942510678649, !- X,Y,Z Vertex 1 {m}
  -20.0646275777858, -4.59519368189774, 4.89926413647951, !- X,Y,Z Vertex 2 {m}
  -23.6668625371441, -24.8665227821618, 1.69419367236191; !- X,Y,Z Vertex 3 {m}

OS:Surface,
  {4d5ed560-2964-4e7d-b6b4-a2f8e60f87e0}, !- Handle
  surface_1_generic_window_frame,         !- Name
  Wall,                                   !- Surface Type
  {178f2397-e42b-440d-bdcc-0a069e6f3fc2}, !- Construction Name
  {3ec8f894-c38c-4936-8599-fe1c235ef9be}, !- Space Name
  Outdoors,                               !- Outside Boundary Condition
  ,                                       !- Outside Boundary Condition Object
  SunExposed,                             !- Sun Exposure
  WindExposed,                            !- Wind Exposure
  ,                                       !- View Factor to Ground
  ,                                       !- Number of Vertices
  -20.0646275777858, -4.59519368189774, 4.89926413647951, !- X,Y,Z Vertex 1 {m}
  -20.861618422021, 13.9108873066991, 7.01525794848009, !- X,Y,Z Vertex 2 {m}
  -23.7653876346572, -4.78816847853185, 3.03771867473301; !- X,Y,Z Vertex 3 {m}

OS:SubSurface,
  {1ca1ea7b-f073-43d6-a078-9a419b944c3e}, !- Handle
  subsurface_1_clear_6mm,                 !- Name
  FixedWindow,                            !- Sub Surface Type
  {b1a2126c-a52c-46a7-bf3c-750a59e6ad04}, !- Construction Name
  {4d5ed560-2964-4e7d-b6b4-a2f8e60f87e0}, !- Surface Name
  ,                                       !- Outside Boundary Condition Object
  ,                                       !- View Factor to Ground
  ,                                       !- Frame and Divider Name
  ,                                       !- Multiplier
  ,                                       !- Number of Vertices
  -20.067012505508, -4.58548317644791, 4.89939905745173, !- X,Y,Z Vertex 1 {m}
  -20.8621763662432, 13.9010341624807, 7.01364418044966, !- X,Y,Z Vertex 2 {m}
  -23.7622196341071, -4.77910652107296, 3.04051951380865; !- X,Y,Z Vertex 3 {m}

OS:Surface,
  {efb8b87e-7686-4f7c-9245-d4610f0d2a7f}, !- Handle
  surface_2_generic_window_frame,         !- Name
  Wall,                                   !- Surface Type
  {178f2397-e42b-440d-bdcc-0a069e6f3fc2}, !- Construction Name
  {3ec8f894-c38c-4936-8599-fe1c235ef9be}, !- Space Name
  Outdoors,                               !- Outside Boundary Condition
  ,                                       !- Outside Boundary Condition Object
  SunExposed,                             !- Sun Exposure
  WindExposed,                            !- Wind Exposure
  ,                                       !- View Factor to Ground
  ,                                       !- Number of Vertices
  -23.6668625371441, -24.8665227821618, 1.69419367236191, !- X,Y,Z Vertex 1 {m}
  -23.7653876346572, -4.78816847853185, 3.03771867473301, !- X,Y,Z Vertex 2 {m}
  -27.1287050595285, -23.1908347164922, 0; !- X,Y,Z Vertex 3 {m}

OS:SubSurface,
  {891fa00f-2aa4-4368-b85a-1a11d95f3451}, !- Handle
  subsurface_2_clear_6mm,                 !- Name
  FixedWindow,                            !- Sub Surface Type
  {b1a2126c-a52c-46a7-bf3c-750a59e6ad04}, !- Construction Name
  {efb8b87e-7686-4f7c-9245-d4610f0d2a7f}, !- Surface Name
  ,                                       !- Outside Boundary Condition Object
  ,                                       !- View Factor to Ground
  ,                                       !- Frame and Divider Name
  ,                                       !- Multiplier
  ,                                       !- Number of Vertices
  -23.6684774903135, -24.8566553292964, 1.69403461196689, !- X,Y,Z Vertex 1 {m}
  -23.7662276256409, -4.79806917268217, 3.03659143452382, !- X,Y,Z Vertex 2 {m}
  -27.1250504076792, -23.1818779620448, 0.00253378563198898; !- X,Y,Z Vertex 3 {m}

OS:Surface,
  {690cba82-6d65-4e1a-80ae-19d4557425c3}, !- Handle
  surface_3_I02_50_mm_insulation_board,   !- Name
  Wall,                                   !- Surface Type
  {37244e5c-4b6d-48bd-81f8-a6ab92695829}, !- Construction Name
  {3ec8f894-c38c-4936-8599-fe1c235ef9be}, !- Space Name
  Outdoors,                               !- Outside Boundary Condition
  ,                                       !- Outside Boundary Condition Object
  SunExposed,                             !- Sun Exposure
  WindExposed,                            !- Wind Exposure
  ,                                       !- View Factor to Ground
  ,                                       !- Number of Vertices
  -20.0646275777858, -4.59519368189774, 4.89926413647951, !- X,Y,Z Vertex 1 {m}
  -23.7653876346572, -4.78816847853185, 3.03771867473301, !- X,Y,Z Vertex 2 {m}
  -23.6668625371441, -24.8665227821618, 1.69419367236191; !- X,Y,Z Vertex 3 {m}

OS:Surface,
  {add47944-61c2-4bef-8529-2b910c57c01c}, !- Handle
  surface_4_generic_window_frame,         !- Name
  Wall,                                   !- Surface Type
  {178f2397-e42b-440d-bdcc-0a069e6f3fc2}, !- Construction Name
  {3ec8f894-c38c-4936-8599-fe1c235ef9be}, !- Space Name
  Outdoors,                               !- Outside Boundary Condition
  ,                                       !- Outside Boundary Condition Object
  SunExposed,                             !- Sun Exposure
  WindExposed,                            !- Wind Exposure
  ,                                       !- View Factor to Ground
  ,                                       !- Number of Vertices
  21.6377721545075, -20.5414652998511, 0, !- X,Y,Z Vertex 1 {m}
  -0.0396532051108699, -22.3155273683536, 2.13881235573657, !- X,Y,Z Vertex 2 {m}
  -4.62883695191084, -23.5727973388249, 0; !- X,Y,Z Vertex 3 {m}

OS:SubSurface,
  {5ec0c9cf-32ca-4874-8e90-7e63b37c763f}, !- Handle
  subsurface_4_clear_6mm,                 !- Name
  FixedWindow,                            !- Sub Surface Type
  {b1a2126c-a52c-46a7-bf3c-750a59e6ad04}, !- Construction Name
  {add47944-61c2-4bef-8529-2b910c57c01c}, !- Surface Name
  ,                                       !- Outside Boundary Condition Object
  ,                                       !- View Factor to Ground
  ,                                       !- Frame and Divider Name
  ,                                       !- Multiplier
  ,                                       !- Number of Vertices
  21.6278317966863, -20.5424616143547, 0.000443445370528011, !- X,Y,Z Vertex 1 {m}
  -0.0299566956974744, -22.315234121128, 2.13638507098595, !- X,Y,Z Vertex 2 {m}
  -4.61895542565258, -23.571423919786, 0.000684951787019519; !- X,Y,Z Vertex 3 {m}

OS:Surface,
  {d0a9d898-e747-4739-bc5b-5e44c37a1df7}, !- Handle
  surface_5_generic_window_frame,         !- Name
  Wall,                                   !- Surface Type
  {178f2397-e42b-440d-bdcc-0a069e6f3fc2}, !- Construction Name
  {3ec8f894-c38c-4936-8599-fe1c235ef9be}, !- Space Name
  Outdoors,                               !- Outside Boundary Condition
  ,                                       !- Outside Boundary Condition Object
  SunExposed,                             !- Sun Exposure
  WindExposed,                            !- Wind Exposure
  ,                                       !- View Factor to Ground
  ,                                       !- Number of Vertices
  -0.0396532051108699, -22.3155273683536, 2.13881235573657, !- X,Y,Z Vertex 1 {m}
  -19.387356075929, -21.5274497206793, 3.97942510678649, !- X,Y,Z Vertex 2 {m}
  -23.6668625371441, -24.8665227821618, 1.69419367236191; !- X,Y,Z Vertex 3 {m}

OS:SubSurface,
  {288e6716-754d-45ac-9a70-b7efa91704cf}, !- Handle
  subsurface_5_clear_6mm,                 !- Name
  FixedWindow,                            !- Sub Surface Type
  {b1a2126c-a52c-46a7-bf3c-750a59e6ad04}, !- Construction Name
  {d0a9d898-e747-4739-bc5b-5e44c37a1df7}, !- Surface Name
  ,                                       !- Outside Boundary Condition Object
  ,                                       !- View Factor to Ground
  ,                                       !- Frame and Divider Name
  ,                                       !- Multiplier
  ,                                       !- Number of Vertices
  -0.0496395430996076, -22.3159370281238, 2.13913675124725, !- X,Y,Z Vertex 1 {m}
  -19.3780309989501, -21.5300038417579, 3.97687179426079, !- X,Y,Z Vertex 2 {m}
  -23.6571226096103, -24.8644670461683, 1.69514643737096; !- X,Y,Z Vertex 3 {m}

OS:Surface,
  {b28e0b04-3ec8-48ad-a45c-43b5764dc7f7}, !- Handle
  surface_6_I02_50_mm_insulation_board,   !- Name
  Wall,                                   !- Surface Type
  {37244e5c-4b6d-48bd-81f8-a6ab92695829}, !- Construction Name
  {3ec8f894-c38c-4936-8599-fe1c235ef9be}, !- Space Name
  Outdoors,                               !- Outside Boundary Condition
  ,                                       !- Outside Boundary Condition Object
  SunExposed,                             !- Sun Exposure
  WindExposed,                            !- Wind Exposure
  ,                                       !- View Factor to Ground
  ,                                       !- Number of Vertices
  -4.62883695191084, -23.5727973388249, 0, !- X,Y,Z Vertex 1 {m}
  -23.6668625371441, -24.8665227821618, 1.69419367236191, !- X,Y,Z Vertex 2 {m}
  -27.1287050595285, -23.1908347164922, 0; !- X,Y,Z Vertex 3 {m}

OS:Surface,
  {85643208-3b1d-4be9-a577-b9d3501b5a16}, !- Handle
  surface_7_generic_window_frame,         !- Name
  Wall,                                   !- Surface Type
  {178f2397-e42b-440d-bdcc-0a069e6f3fc2}, !- Construction Name
  {3ec8f894-c38c-4936-8599-fe1c235ef9be}, !- Space Name
  Outdoors,                               !- Outside Boundary Condition
  ,                                       !- Outside Boundary Condition Object
  SunExposed,                             !- Sun Exposure
  WindExposed,                            !- Wind Exposure
  ,                                       !- View Factor to Ground
  ,                                       !- Number of Vertices
  -0.0396532051108699, -22.3155273683536, 2.13881235573657, !- X,Y,Z Vertex 1 {m}
  -23.6668625371441, -24.8665227821618, 1.69419367236191, !- X,Y,Z Vertex 2 {m}
  -4.62883695191084, -23.5727973388249, 0; !- X,Y,Z Vertex 3 {m}

OS:SubSurface,
  {af8eac9d-b419-470c-9f18-0ca6fb5ecaf9}, !- Handle
  subsurface_7_clear_6mm,                 !- Name
  FixedWindow,                            !- Sub Surface Type
  {b1a2126c-a52c-46a7-bf3c-750a59e6ad04}, !- Construction Name
  {85643208-3b1d-4be9-a577-b9d3501b5a16}, !- Surface Name
  ,                                       !- Outside Boundary Condition Object
  ,                                       !- View Factor to Ground
  ,                                       !- Frame and Divider Name
  ,                                       !- Multiplier
  ,                                       !- Number of Vertices
  -0.0495228069200694, -22.3168594331154, 2.13790871665038, !- X,Y,Z Vertex 1 {m}
  -23.6569071283753, -24.8656256637513, 1.69390209937921, !- X,Y,Z Vertex 2 {m}
  -4.63850259846409, -23.5728217259502, 0.00256411426731216; !- X,Y,Z Vertex 3 {m}

OS:Surface,
  {5f57eee7-6ee2-4181-94e0-25fc169de785}, !- Handle
  surface_8_M08_200mm_lightweight_concrete_block_filled, !- Name
  Wall,                                   !- Surface Type
  {0e8fc312-873f-4e37-8fb3-095834161bce}, !- Construction Name
  {3ec8f894-c38c-4936-8599-fe1c235ef9be}, !- Space Name
  Outdoors,                               !- Outside Boundary Condition
  ,                                       !- Outside Boundary Condition Object
  SunExposed,                             !- Sun Exposure
  WindExposed,                            !- Wind Exposure
  ,                                       !- View Factor to Ground
  ,                                       !- Number of Vertices
  -27.1287050595285, -23.1908347164922, 0, !- X,Y,Z Vertex 1 {m}
  -23.7653876346572, -4.78816847853185, 3.03771867473301, !- X,Y,Z Vertex 2 {m}
  -24.7028372805193, 2.7011267130169, 0;  !- X,Y,Z Vertex 3 {m}

OS:Surface,
  {dd45aaf8-ca3e-4e20-a985-662ad5c64e13}, !- Handle
  surface_9_M08_200mm_lightweight_concrete_block_filled, !- Name
  Wall,                                   !- Surface Type
  {0e8fc312-873f-4e37-8fb3-095834161bce}, !- Construction Name
  {3ec8f894-c38c-4936-8599-fe1c235ef9be}, !- Space Name
  Outdoors,                               !- Outside Boundary Condition
  ,                                       !- Outside Boundary Condition Object
  SunExposed,                             !- Sun Exposure
  WindExposed,                            !- Wind Exposure
  ,                                       !- View Factor to Ground
  ,                                       !- Number of Vertices
  -23.7653876346572, -4.78816847853185, 3.03771867473301, !- X,Y,Z Vertex 1 {m}
  -20.861618422021, 13.9108873066991, 7.01525794848009, !- X,Y,Z Vertex 2 {m}
  -21.9678059020953, 21.8591499476171, 3.11940644870871; !- X,Y,Z Vertex 3 {m}

OS:Surface,
  {a15790de-7afa-4570-864f-0c9c8faaa574}, !- Handle
  surface_10_M08_200mm_lightweight_concrete_block_filled, !- Name
  Wall,                                   !- Surface Type
  {0e8fc312-873f-4e37-8fb3-095834161bce}, !- Construction Name
  {3ec8f894-c38c-4936-8599-fe1c235ef9be}, !- Space Name
  Outdoors,                               !- Outside Boundary Condition
  ,                                       !- Outside Boundary Condition Object
  SunExposed,                             !- Sun Exposure
  WindExposed,                            !- Wind Exposure
  ,                                       !- View Factor to Ground
  ,                                       !- Number of Vertices
  -24.7028372805193, 2.7011267130169, 0,  !- X,Y,Z Vertex 1 {m}
  -21.9678059020953, 21.8591499476171, 3.11940644870871, !- X,Y,Z Vertex 2 {m}
  -22.1525857876614, 28.940878656546, 0;  !- X,Y,Z Vertex 3 {m}

OS:Surface,
  {35762b43-1972-4fd1-b049-432071c05d1a}, !- Handle
  surface_11_M08_200mm_lightweight_concrete_block_filled, !- Name
  Wall,                                   !- Surface Type
  {0e8fc312-873f-4e37-8fb3-095834161bce}, !- Construction Name
  {3ec8f894-c38c-4936-8599-fe1c235ef9be}, !- Space Name
  Outdoors,                               !- Outside Boundary Condition
  ,                                       !- Outside Boundary Condition Object
  SunExposed,                             !- Sun Exposure
  WindExposed,                            !- Wind Exposure
  ,                                       !- View Factor to Ground
  ,                                       !- Number of Vertices
  -23.7653876346572, -4.78816847853185, 3.03771867473301, !- X,Y,Z Vertex 1 {m}
  -21.9678059020953, 21.8591499476171, 3.11940644870871, !- X,Y,Z Vertex 2 {m}
  -24.7028372805193, 2.7011267130169, 0;  !- X,Y,Z Vertex 3 {m}

OS:Surface,
  {a576fe92-7cff-4144-9c2a-165131515c69}, !- Handle
  surface_12_M16_300mm_heavyweight_concrete, !- Name
  Floor,                                  !- Surface Type
  {60aa229c-2ea3-4d08-8699-038162817ec7}, !- Construction Name
  {3ec8f894-c38c-4936-8599-fe1c235ef9be}, !- Space Name
  Ground,                                 !- Outside Boundary Condition
  ,                                       !- Outside Boundary Condition Object
  NoSun,                                  !- Sun Exposure
  NoWind,                                 !- Wind Exposure
  ,                                       !- View Factor to Ground
  ,                                       !- Number of Vertices
  -22.1525857876614, 28.940878656546, 0,  !- X,Y,Z Vertex 1 {m}
  -2.85267772202379, 1.87975658985931, 0, !- X,Y,Z Vertex 2 {m}
  -24.7028372805193, 2.7011267130169, 0;  !- X,Y,Z Vertex 3 {m}

OS:Surface,
  {debc068a-be41-4e73-a6eb-264eb1c49378}, !- Handle
  surface_13_M16_300mm_heavyweight_concrete, !- Name
  Floor,                                  !- Surface Type
  {60aa229c-2ea3-4d08-8699-038162817ec7}, !- Construction Name
  {3ec8f894-c38c-4936-8599-fe1c235ef9be}, !- Space Name
  Ground,                                 !- Outside Boundary Condition
  ,                                       !- Outside Boundary Condition Object
  NoSun,                                  !- Sun Exposure
  NoWind,                                 !- Wind Exposure
  ,                                       !- View Factor to Ground
  ,                                       !- Number of Vertices
  -2.85267772202379, 1.87975658985931, 0, !- X,Y,Z Vertex 1 {m}
  21.6377721545075, -20.5414652998511, 0, !- X,Y,Z Vertex 2 {m}
  -4.62883695191084, -23.5727973388249, 0; !- X,Y,Z Vertex 3 {m}

OS:Surface,
  {0f5ba34e-b6d8-4d81-b03b-f75df71b2bf6}, !- Handle
  surface_14_M16_300mm_heavyweight_concrete, !- Name
  Floor,                                  !- Surface Type
  {60aa229c-2ea3-4d08-8699-038162817ec7}, !- Construction Name
  {3ec8f894-c38c-4936-8599-fe1c235ef9be}, !- Space Name
  Ground,                                 !- Outside Boundary Condition
  ,                                       !- Outside Boundary Condition Object
  NoSun,                                  !- Sun Exposure
  NoWind,                                 !- Wind Exposure
  ,                                       !- View Factor to Ground
  ,                                       !- Number of Vertices
  -24.7028372805193, 2.7011267130169, 0,  !- X,Y,Z Vertex 1 {m}
  -4.62883695191084, -23.5727973388249, 0, !- X,Y,Z Vertex 2 {m}
  -27.1287050595285, -23.1908347164922, 0; !- X,Y,Z Vertex 3 {m}

OS:Surface,
  {e37d102e-f879-4fd3-bcd1-5d3f07aa5a52}, !- Handle
  surface_15_M16_300mm_heavyweight_concrete, !- Name
  Floor,                                  !- Surface Type
  {60aa229c-2ea3-4d08-8699-038162817ec7}, !- Construction Name
  {3ec8f894-c38c-4936-8599-fe1c235ef9be}, !- Space Name
  Ground,                                 !- Outside Boundary Condition
  ,                                       !- Outside Boundary Condition Object
  NoSun,                                  !- Sun Exposure
  NoWind,                                 !- Wind Exposure
  ,                                       !- View Factor to Ground
  ,                                       !- Number of Vertices
  -2.85267772202379, 1.87975658985931, 0, !- X,Y,Z Vertex 1 {m}
  -4.62883695191084, -23.5727973388249, 0, !- X,Y,Z Vertex 2 {m}
  -24.7028372805193, 2.7011267130169, 0;  !- X,Y,Z Vertex 3 {m}

OS:Surface,
  {ba6886d3-39a0-433d-996d-9cec4250ace5}, !- Handle
  surface_16_generic_window_frame,        !- Name
  Wall,                                   !- Surface Type
  {178f2397-e42b-440d-bdcc-0a069e6f3fc2}, !- Construction Name
  {3ec8f894-c38c-4936-8599-fe1c235ef9be}, !- Space Name
  Outdoors,                               !- Outside Boundary Condition
  ,                                       !- Outside Boundary Condition Object
  SunExposed,                             !- Sun Exposure
  WindExposed,                            !- Wind Exposure
  ,                                       !- View Factor to Ground
  ,                                       !- Number of Vertices
  -19.387356075929, -21.5274497206793, 3.97942510678649, !- X,Y,Z Vertex 1 {m}
  -0.55757506245555, 0.0586414809563838, 5.12116548965128, !- X,Y,Z Vertex 2 {m}
  -20.0646275777858, -4.59519368189774, 4.89926413647951; !- X,Y,Z Vertex 3 {m}

OS:SubSurface,
  {5231cce9-7e56-455c-bcc5-8f8e724d2ee3}, !- Handle
  subsurface_16_low_iron_3mm,             !- Name
  FixedWindow,                            !- Sub Surface Type
  {c15802da-e558-403e-be34-a92628c80043}, !- Construction Name
  {ba6886d3-39a0-433d-996d-9cec4250ace5}, !- Surface Name
  ,                                       !- Outside Boundary Condition Object
  ,                                       !- View Factor to Ground
  ,                                       !- Frame and Divider Name
  ,                                       !- Multiplier
  ,                                       !- Number of Vertices
  -19.3830980508917, -21.5184144913165, 3.97990869043367, !- X,Y,Z Vertex 1 {m}
  -0.565823633160407, 0.0529956863514353, 5.12087208786922, !- X,Y,Z Vertex 2 {m}
  -20.0560878725527, -4.60038851006834, 4.89896884880857; !- X,Y,Z Vertex 3 {m}

OS:Surface,
  {8f18b7e8-cf4c-48fe-8420-baa12b6f6873}, !- Handle
  surface_17_generic_window_frame,        !- Name
  Wall,                                   !- Surface Type
  {178f2397-e42b-440d-bdcc-0a069e6f3fc2}, !- Construction Name
  {3ec8f894-c38c-4936-8599-fe1c235ef9be}, !- Space Name
  Outdoors,                               !- Outside Boundary Condition
  ,                                       !- Outside Boundary Condition Object
  SunExposed,                             !- Sun Exposure
  WindExposed,                            !- Wind Exposure
  ,                                       !- View Factor to Ground
  ,                                       !- Number of Vertices
  -0.55757506245555, 0.0586414809563838, 5.12116548965128, !- X,Y,Z Vertex 1 {m}
  16.0454910932967, 21.7669443886643, 5.58077657272919, !- X,Y,Z Vertex 2 {m}
  -2.94782697668029, 18.6753683994338, 5.9678587082942; !- X,Y,Z Vertex 3 {m}

OS:SubSurface,
  {52d4ffc6-aa7d-40ca-9002-59cfb6b82add}, !- Handle
  subsurface_17_low_iron_3mm,             !- Name
  FixedWindow,                            !- Sub Surface Type
  {c15802da-e558-403e-be34-a92628c80043}, !- Construction Name
  {8f18b7e8-cf4c-48fe-8420-baa12b6f6873}, !- Surface Name
  ,                                       !- Outside Boundary Condition Object
  ,                                       !- View Factor to Ground
  ,                                       !- Frame and Divider Name
  ,                                       !- Multiplier
  ,                                       !- Number of Vertices
  -0.554252477709239, 0.0680684196835187, 5.12147086947777, !- X,Y,Z Vertex 1 {m}
  16.0372860719897, 21.7612279784394, 5.58075985469524, !- X,Y,Z Vertex 2 {m}
  -2.93974364738713, 18.6694996456486, 5.96739232160249; !- X,Y,Z Vertex 3 {m}

OS:Surface,
  {40a2dc2f-401f-4e4a-90f6-dab58e88b85b}, !- Handle
  surface_18_generic_window_frame,        !- Name
  Wall,                                   !- Surface Type