
Version,
  24.2;                                   !- Version Identifier

Timestep,
  6;                                      !- Number of Timesteps per Hour

LifeCycleCost:Parameters,
  Life Cycle Cost Parameters,             !- Name
  EndOfYear,                              !- Discounting Convention
  ConstantDollar,                         !- Inflation Approach
  0.03,                                   !- Real Discount Rate
  ,                                       !- Nominal Discount Rate
  ,                                       !- Inflation
  ,                                       !- Base Date Month
  2011,                                   !- Base Date Year
  ,                                       !- Service Date Month
  2011,                                   !- Service Date Year
  25,                                     !- Length of Study Period in Years
  ,                                       !- Tax rate
  None;                                   !- Depreciation Method

LifeCycleCost:UsePriceEscalation,
  U.S. Avg  Commercial-Electricity,       !- Name
  Electricity,                            !- Resource
  2011,                                   !- Escalation Start Year
  January,                                !- Escalation Start Month
  0.9838,                                 !- Year Escalation 1
  0.9730,                                 !- Year Escalation 2
  0.9632,                                 !- Year Escalation 3
  0.9611,                                 !- Year Escalation 4
  0.9571,                                 !- Year Escalation 5
  0.9553,                                 !- Year Escalation 6
  0.9539,                                 !- Year Escalation 7
  0.9521,                                 !- Year Escalation 8
  0.9546,                                 !- Year Escalation 9
  0.9550,                                 !- Year Escalation 10
  0.9553,                                 !- Year Escalation 11
  0.9564,                                 !- Year Escalation 12
  0.9575,                                 !- Year Escalation 13
  0.9596,                                 !- Year Escalation 14
  0.9618,                                 !- Year Escalation 15
  0.9614,                                 !- Year Escalation 16
  0.9618,                                 !- Year Escalation 17
  0.9618,                                 !- Year Escalation 18
  0.9593,                                 !- Year Escalation 19
  0.9589,                                 !- Year Escalation 20
  0.9607,                                 !- Year Escalation 21
  0.9625,                                 !- Year Escalation 22
  0.9650,                                 !- Year Escalation 23
  0.9708,                                 !- Year Escalation 24
  0.9751,                                 !- Year Escalation 25
  0.9762,                                 !- Year Escalation 26
  0.9766,                                 !- Year Escalation 27
  0.9766,                                 !- Year Escalation 28
  0.9769,                                 !- Year Escalation 29
  0.9773;                                 !- Year Escalation 30

LifeCycleCost:UsePriceEscalation,
  U.S. Avg  Commercial-Distillate Oil,    !- Name
  FuelOilNo1,                             !- Resource
  2011,                                   !- Escalation Start Year
  January,                                !- Escalation Start Month
  0.9714,                                 !- Year Escalation 1
  0.9730,                                 !- Year Escalation 2
  0.9942,                                 !- Year Escalation 3
  1.0164,                                 !- Year Escalation 4
  1.0541,                                 !- Year Escalation 5
  1.0928,                                 !- Year Escalation 6
  1.1267,                                 !- Year Escalation 7
  1.1580,                                 !- Year Escalation 8
  1.1792,                                 !- Year Escalation 9
  1.1967,                                 !- Year Escalation 10
  1.2200,                                 !- Year Escalation 11
  1.2333,                                 !- Year Escalation 12
  1.2566,                                 !- Year Escalation 13
  1.2709,                                 !- Year Escalation 14
  1.2826,                                 !- Year Escalation 15
  1.2985,                                 !- Year Escalation 16
  1.3102,                                 !- Year Escalation 17
  1.3250,                                 !- Year Escalation 18
  1.3261,                                 !- Year Escalation 19
  1.3282,                                 !- Year Escalation 20
  1.3324,                                 !- Year Escalation 21
  1.3356,                                 !- Year Escalation 22
  1.3431,                                 !- Year Escalation 23
  1.3510,                                 !- Year Escalation 24
  1.3568,                                 !- Year Escalation 25
  1.3606,                                 !- Year Escalation 26
  1.3637,                                 !- Year Escalation 27
  1.3674,                                 !- Year Escalation 28
  1.3706,                                 !- Year Escalation 29
  1.3743;                                 !- Year Escalation 30

LifeCycleCost:UsePriceEscalation,
  U.S. Avg  Commercial-Residual Oil,      !- Name
  FuelOilNo2,                             !- Resource
  2011,                                   !- Escalation Start Year
  January,                                !- Escalation Start Month
  0.8469,                                 !- Year Escalation 1
  0.8257,                                 !- Year Escalation 2
  0.8681,                                 !- Year Escalation 3
  0.8988,                                 !- Year Escalation 4
  0.9289,                                 !- Year Escalation 5
  0.9604,                                 !- Year Escalation 6
  0.9897,                                 !- Year Escalation 7
  1.0075,                                 !- Year Escalation 8
  1.0314,                                 !- Year Escalation 9
  1.0554,                                 !- Year Escalation 10
  1.0861,                                 !- Year Escalation 11
  1.1278,                                 !- Year Escalation 12
  1.1497,                                 !- Year Escalation 13
  1.1620,                                 !- Year Escalation 14
  1.1743,                                 !- Year Escalation 15
  1.1852,                                 !- Year Escalation 16
  1.1948,                                 !- Year Escalation 17
  1.2037,                                 !- Year Escalation 18
  1.2071,                                 !- Year Escalation 19
  1.2119,                                 !- Year Escalation 20
  1.2139,                                 !- Year Escalation 21
  1.2194,                                 !- Year Escalation 22
  1.2276,                                 !- Year Escalation 23
  1.2365,                                 !- Year Escalation 24
  1.2420,                                 !- Year Escalation 25
  1.2461,                                 !- Year Escalation 26
  1.2509,                                 !- Year Escalation 27
  1.2550,                                 !- Year Escalation 28
  1.2591,                                 !- Year Escalation 29
  1.2638;                                 !- Year Escalation 30

LifeCycleCost:UsePriceEscalation,
  U.S. Avg  Commercial-Natural gas,       !- Name
  NaturalGas,                             !- Resource
  2011,                                   !- Escalation Start Year
  January,                                !- Escalation Start Month
  0.9823,                                 !- Year Escalation 1
  0.9557,                                 !- Year Escalation 2
  0.9279,                                 !- Year Escalation 3
  0.9257,                                 !- Year Escalation 4
  0.9346,                                 !- Year Escalation 5
  0.9412,                                 !- Year Escalation 6
  0.9512,                                 !- Year Escalation 7
  0.9645,                                 !- Year Escalation 8
  0.9856,                                 !- Year Escalation 9
  1.0067,                                 !- Year Escalation 10
  1.0222,                                 !- Year Escalation 11
  1.0410,                                 !- Year Escalation 12
  1.0610,                                 !- Year Escalation 13
  1.0787,                                 !- Year Escalation 14
  1.0942,                                 !- Year Escalation 15
  1.1098,                                 !- Year Escalation 16
  1.1220,                                 !- Year Escalation 17
  1.1308,                                 !- Year Escalation 18
  1.1386,                                 !- Year Escalation 19
  1.1486,                                 !- Year Escalation 20
  1.1619,                                 !- Year Escalation 21
  1.1763,                                 !- Year Escalation 22
  1.1918,                                 !- Year Escalation 23
  1.2118,                                 !- Year Escalation 24
  1.2284,                                 !- Year Escalation 25
  1.2439,                                 !- Year Escalation 26
  1.2605,                                 !- Year Escalation 27
  1.2772,                                 !- Year Escalation 28
  1.2938,                                 !- Year Escalation 29
  1.3115;                                 !- Year Escalation 30

LifeCycleCost:UsePriceEscalation,
  U.S. Avg  Commercial-Coal,              !- Name
  Coal,                                   !- Resource
  2011,                                   !- Escalation Start Year
  January,                                !- Escalation Start Month
  0.9970,                                 !- Year Escalation 1
  1.0089,                                 !- Year Escalation 2
  1.0089,                                 !- Year Escalation 3
  0.9941,                                 !- Year Escalation 4
  0.9941,                                 !- Year Escalation 5
  1.0000,                                 !- Year Escalation 6
  1.0030,                                 !- Year Escalation 7
  1.0059,                                 !- Year Escalation 8
  1.0089,                                 !- Year Escalation 9
  1.0119,                                 !- Year Escalation 10
  1.0148,                                 !- Year Escalation 11
  1.0178,                                 !- Year Escalation 12
  1.0208,                                 !- Year Escalation 13
  1.0267,                                 !- Year Escalation 14
  1.0297,                                 !- Year Escalation 15
  1.0356,                                 !- Year Escalation 16
  1.0415,                                 !- Year Escalation 17
  1.0534,                                 !- Year Escalation 18
  1.0564,                                 !- Year Escalation 19
  1.0593,                                 !- Year Escalation 20
  1.0653,                                 !- Year Escalation 21
  1.0712,                                 !- Year Escalation 22
  1.0742,                                 !- Year Escalation 23
  1.0801,                                 !- Year Escalation 24
  1.0831,                                 !- Year Escalation 25
  1.0831,                                 !- Year Escalation 26
  1.0861,                                 !- Year Escalation 27
  1.0890,                                 !- Year Escalation 28
  1.0920,                                 !- Year Escalation 29
  1.0950;                                 !- Year Escalation 30

Building,
  Building 1,                             !- Name
  ,                                       !- North Axis {deg}
  ,                                       !- Terrain
  ,                                       !- Loads Convergence Tolerance Value {W}
  ,                                       !- Temperature Convergence Tolerance Value {deltaC}
  FullExterior,                           !- Solar Distribution
  ,                                       !- Maximum Number of Warmup Days
  ;                                       !- Minimum Number of Warmup Days

Zone,
  Main Zone,                              !- Name
  ,                                       !- Direction of Relative North {deg}
  0,                                      !- X Origin {m}
  0,                                      !- Y Origin {m}
  0,                                      !- Z Origin {m}
  ,                                       !- Type
  1,                                      !- Multiplier
  ,                                       !- Ceiling Height {m}
  ,                                       !- Volume {m3}
  ,                                       !- Floor Area {m2}
  ,                                       !- Zone Inside Convection Algorithm
  ,                                       !- Zone Outside Convection Algorithm
  Yes;                                    !- Part of Total Floor Area

Space,
  Main Space,                             !- Name
  Main Zone,                              !- Zone Name
  ,                                       !- Ceiling Height {m}
  ,                                       !- Volume {m3}
  ;                                       !- Floor Area {m2}

BuildingSurface:Detailed,
  surface_0_generic_window_frame,         !- Name
  Wall,                                   !- Surface Type
  generic_window_frame,                   !- Construction Name
  Main Zone,                              !- Zone Name
  Main Space,                             !- Space Name
  Outdoors,                               !- Outside Boundary Condition
  ,                                       !- Outside Boundary Condition Object
  SunExposed,                             !- Sun Exposure
  WindExposed,                            !- Wind Exposure
  ,                                       !- View Factor to Ground
  ,                                       !- Number of Vertices
  -24.1341017613541, -21.1285778499513, 4.65911938477158, !- X,Y,Z Vertex 1 {m}
  -26.6606349958014, 0.731673026127122, 6.01049844896636, !- X,Y,Z Vertex 2 {m}
  -24.1267305338836, -21.0143882499718, 2.37211170292467; !- X,Y,Z Vertex 3 {m}

FenestrationSurface:Detailed,
  subsurface_0_low_iron_3mm,              !- Name
  Window,                                 !- Surface Type
  low_iron_3mm,                           !- Construction Name
  surface_0_generic_window_frame,         !- Building Surface Name
  ,                                       !- Outside Boundary Condition Object
  ,                                       !- View Factor to Ground
  ,                                       !- Frame and Divider Name
  ,                                       !- Multiplier
  ,                                       !- Number of Vertices
  -24.135239689408, -21.118651798265, 4.65869675294038, !- X,Y,Z Vertex 1 {m}
  -26.6594896243141, 0.721803242206989, 6.00936907324233, !- X,Y,Z Vertex 2 {m}
  -24.1278563747854, -21.0048048560815, 2.37473678269623; !- X,Y,Z Vertex 3 {m}

BuildingSurface:Detailed,
  surface_10_generic_window_frame,        !- Name
  Wall,                                   !- Surface Type
  generic_window_frame,                   !- Construction Name
  Main Zone,                              !- Zone Name
  Main Space,                             !- Space Name
  Outdoors,                               !- Outside Boundary Condition
  ,                                       !- Outside Boundary Condition Object
  SunExposed,                             !- Sun Exposure
  WindExposed,                            !- Wind Exposure
  ,                                       !- View Factor to Ground
  ,                                       !- Number of Vertices
  -27.5404770534722, 1.26528638011644, 0, !- X,Y,Z Vertex 1 {m}
  -30.0771036606448, 23.1100146868179, 3.73941275658601, !- X,Y,Z Vertex 2 {m}
  -30.8750986703476, 23.4495637764163, 0; !- X,Y,Z Vertex 3 {m}

FenestrationSurface:Detailed,
  subsurface_10_clear_6mm,                !- Name
  Window,                                 !- Surface Type
  clear_6mm,                              !- Construction Name
  surface_10_generic_window_frame,        !- Building Surface Name
  ,                                       !- Outside Boundary Condition Object
  ,                                       !- View Factor to Ground
  ,                                       !- Frame and Divider Name
  ,                                       !- Multiplier
  ,                                       !- Number of Vertices
  -27.5417941894791, 1.27516369862638, 0.000838887234613024, !- X,Y,Z Vertex 1 {m}
  -30.0763422652852, 23.1005969679141, 3.73613756991109, !- X,Y,Z Vertex 2 {m}
  -30.8733176091194, 23.4398565333573, 0.00161159954543547; !- X,Y,Z Vertex 3 {m}

BuildingSurface:Detailed,
  surface_11_generic_window_frame,        !- Name
  Wall,                                   !- Surface Type
  generic_window_frame,                   !- Construction Name
  Main Zone,                              !- Zone Name
  Main Space,                             !- Space Name
  Outdoors,                               !- Outside Boundary Condition
  ,                                       !- Outside Boundary Condition Object
  SunExposed,                             !- Sun Exposure
  WindExposed,                            !- Wind Exposure
  ,                                       !- View Factor to Ground
  ,                                       !- Number of Vertices
  -27.9589704341006, 2.52202849694, 3.25752350815678, !- X,Y,Z Vertex 1 {m}
  -30.0771036606448, 23.1100146868179, 3.73941275658601, !- X,Y,Z Vertex 2 {m}
  -27.5404770534722, 1.26528638011644, 0; !- X,Y,Z Vertex 3 {m}

FenestrationSurface:Detailed,
  subsurface_11_clear_6mm,                !- Name
  Window,                                 !- Surface Type
  clear_6mm,                              !- Construction Name
  surface_11_generic_window_frame,        !- Building Surface Name
  ,                                       !- Outside Boundary Condition Object
  ,                                       !- View Factor to Ground
  ,                                       !- Frame and Divider Name
  ,                                       !- Multiplier
  ,                                       !- Number of Vertices
  -27.9598374506921, 2.5318897092349, 3.25610760762887, !- X,Y,Z Vertex 1 {m}
  -30.0760185204851, 23.1001225668744, 3.73842866621502, !- X,Y,Z Vertex 2 {m}
  -27.5416922493494, 1.27478609983427, 0.00287725985316055; !- X,Y,Z Vertex 3 {m}

BuildingSurface:Detailed,
  surface_12_M16_300mm_heavyweight_concrete, !- Name
  Floor,                                  !- Surface Type
  M16_300mm_heavyweight_concrete,         !- Construction Name
  Main Zone,                              !- Zone Name
  Main Space,                             !- Space Name
  Ground,                                 !- Outside Boundary Condition
  ,                                       !- Outside Boundary Condition Object
  NoSun,                                  !- Sun Exposure
  NoWind,                                 !- Wind Exposure
  ,                                       !- View Factor to Ground
  ,                                       !- Number of Vertices
  -30.8750986703476, 23.4495637764163, 0, !- X,Y,Z Vertex 1 {m}
  -5.18383935174527, -0.97566658883449, 0, !- X,Y,Z Vertex 2 {m}
  -27.5404770534722, 1.26528638011644, 0; !- X,Y,Z Vertex 3 {m}

BuildingSurface:Detailed,
  surface_13_M16_300mm_heavyweight_concrete, !- Name
  Floor,                                  !- Surface Type
  M16_300mm_heavyweight_concrete,         !- Construction Name
  Main Zone,                              !- Zone Name
  Main Space,                             !- Space Name
  Ground,                                 !- Outside Boundary Condition
  ,                                       !- Outside Boundary Condition Object
  NoSun,                                  !- Sun Exposure
  NoWind,                                 !- Wind Exposure
  ,                                       !- View Factor to Ground
  ,                                       !- Number of Vertices
  -5.18383935174527, -0.97566658883449, 0, !- X,Y,Z Vertex 1 {m}
  20.2764377329789, -25.3569793707792, 0, !- X,Y,Z Vertex 2 {m}
  -1.90138510419967, -23.1789252386814, 0; !- X,Y,Z Vertex 3 {m}

BuildingSurface:Detailed,
  surface_14_M16_300mm_heavyweight_concrete, !- Name
  Floor,                                  !- Surface Type
  M16_300mm_heavyweight_concrete,         !- Construction Name
  Main Zone,                              !- Zone Name
  Main Space,                             !- Space Name
  Ground,                                 !- Outside Boundary Condition
  ,                                       !- Outside Boundary Condition Object
  NoSun,                                  !- Sun Exposure
  NoWind,                                 !- Wind Exposure
  ,                                       !- View Factor to Ground
  ,                                       !- Number of Vertices
  -27.5404770534722, 1.26528638011644, 0, !- X,Y,Z Vertex 1 {m}
  -1.90138510419967, -23.1789252386814, 0, !- X,Y,Z Vertex 2 {m}
  -24.1195896473682, -21.0302933455458, 0; !- X,Y,Z Vertex 3 {m}

BuildingSurface:Detailed,
  surface_15_M16_300mm_heavyweight_concrete, !- Name
  Floor,                                  !- Surface Type
  M16_300mm_heavyweight_concrete,         !- Construction Name
  Main Zone,                              !- Zone Name
  Main Space,                             !- Space Name
  Ground,                                 !- Outside Boundary Condition
  ,                                       !- Outside Boundary Condition Object
  NoSun,                                  !- Sun Exposure
  NoWind,                                 !- Wind Exposure
  ,                                       !- View Factor to Ground
  ,                                       !- Number of Vertices
  -5.18383935174527, -0.97566658883449, 0, !- X,Y,Z Vertex 1 {m}
  -1.90138510419967, -23.1789252386814, 0, !- X,Y,Z Vertex 2 {m}
  -27.5404770534722, 1.26528638011644, 0; !- X,Y,Z Vertex 3 {m}

BuildingSurface:Detailed,
  surface_16_generic_window_frame,        !- Name
  Wall,                                   !- Surface Type
  generic_window_frame,                   !- Construction Name
  Main Zone,                              !- Zone Name
  Main Space,                             !- Space Name
  Outdoors,                               !- Outside Boundary Condition
  ,                                       !- Outside Boundary Condition Object
  SunExposed,                             !- Sun Exposure
  WindExposed,                            !- Wind Exposure
  ,                                       !- View Factor to Ground
  ,                                       !- Number of Vertices
  -24.1341017613541, -21.1285778499513, 4.65911938477158, !- X,Y,Z Vertex 1 {m}
  1.0830276605439, 3.55257712581178, 8.30697102199269, !- X,Y,Z Vertex 2 {m}
  -26.6606349958014, 0.731673026127122, 6.01049844896636; !- X,Y,Z Vertex 3 {m}

FenestrationSurface:Detailed,
  subsurface_16_low_iron_3mm,             !- Name
  Window,                                 !- Surface Type
  low_iron_3mm,                           !- Construction Name
  surface_16_generic_window_frame,        !- Building Surface Name
  ,                                       !- Outside Boundary Condition Object
  ,                                       !- View Factor to Ground
  ,                                       !- Frame and Divider Name
  ,                                       !- Multiplier
  ,                                       !- Number of Vertices
  -24.1297397641034, -21.1196308182078, 4.66008042741651, !- X,Y,Z Vertex 1 {m}
  1.07419662163018, 3.54799124738414, 8.30597982536672, !- X,Y,Z Vertex 2 {m}
  -26.6521731434758, 0.726350690540701, 6.0107626442076; !- X,Y,Z Vertex 3 {m}

BuildingSurface:Detailed,
  surface_17_generic_window_frame,        !- Name
  Wall,                                   !- Surface Type
  generic_window_frame,                   !- Construction Name
  Main Zone,                              !- Zone Name
  Main Space,                             !- Space Name
  Outdoors,                               !- Outside Boundary Condition
  ,                                       !- Outside Boundary Condition Object
  SunExposed,                             !- Sun Exposure
  WindExposed,                            !- Wind Exposure
  ,                                       !- View Factor to Ground
  ,                                       !- Number of Vertices
  1.0830276605439, 3.55257712581178, 8.30697102199269, !- X,Y,Z Vertex 1 {m}
  25.0251266699638, 24.3284132262505, 9.84758787000126, !- X,Y,Z Vertex 2 {m}
  -2.68494313890522, 23.1541294725484, 8.88001933615061; !- X,Y,Z Vertex 3 {m}

FenestrationSurface:Detailed,
  subsurface_17_low_iron_3mm,             !- Name
  Window,                                 !- Surface Type
  low_iron_3mm,                           !- Construction Name
  surface_17_generic_window_frame,        !- Building Surface Name
  ,                                       !- Outside Boundary Condition Object
  ,                                       !- View Factor to Ground
  ,                                       !- Frame and Divider Name
  ,                                       !- Multiplier
  ,                                       !- Number of Vertices
  1.08749232213441, 3.56151289609386, 8.30743878940085, !- X,Y,Z Vertex 1 {m}
  25.015932406429, 24.3245060294923, 9.84714140438476, !- X,Y,Z Vertex 2 {m}
  -2.67631363027844, 23.1490777517228, 8.88012749140975; !- X,Y,Z Vertex 3 {m}

BuildingSurface:Detailed,
  surface_18_generic_window_frame,        !- Name
  Wall,                                   !- Surface Type
  generic_window_frame,                   !- Construction Name
  Main Zone,                              !- Zone Name
  Main Space,                             !- Space Name
  Outdoors,                               !- Outside Boundary Condition
  ,                                       !- Outside Boundary Condition Object
  SunExposed,                             !- Sun Exposure
  WindExposed,                            !- Wind Exposure
  ,                                       !- View Factor to Ground
  ,                                       !- Number of Vertices
  -26.6606349958014, 0.731673026127122, 6.01049844896636, !- X,Y,Z Vertex 1 {m}
  -2.68494313890522, 23.1541294725484, 8.88001933615061, !- X,Y,Z Vertex 2 {m}
  -29.2151270279545, 21.7626296298315, 6.87371072415902; !- X,Y,Z Vertex 3 {m}

FenestrationSurface:Detailed,
  subsurface_18_low_iron_3mm,             !- Name
  Window,                                 !- Surface Type
  low_iron_3mm,                           !- Construction Name
  surface_18_generic_window_frame,        !- Building Surface Name
  ,                                       !- Outside Boundary Condition Object
  ,                                       !- View Factor to Ground
  ,                                       !- Frame and Divider Name
  ,                                       !- Multiplier
  ,                                       !- Number of Vertices
  -26.6562264457061, 0.740615874791534, 6.01126665715607, !- X,Y,Z Vertex 1 {m}
  -2.69395382891712, 23.1498808544439, 8.87914944551869, !- X,Y,Z Vertex 2 {m}
  -29.2068438987274, 21.7570364384635, 6.87403627066682; !- X,Y,Z Vertex 3 {m}

BuildingSurface:Detailed,
  surface_19_generic_window_frame,        !- Name
  Wall,                                   !- Surface Type
  generic_window_frame,                   !- Construction Name
  Main Zone,                              !- Zone Name
  Main Space,                             !- Space Name
  Outdoors,                               !- Outside Boundary Condition
  ,                                       !- Outside Boundary Condition Object
  SunExposed,                             !- Sun Exposure
  WindExposed,                            !- Wind Exposure
  ,                                       !- View Factor to Ground
  ,                                       !- Number of Vertices
  1.0830276605439, 3.55257712581178, 8.30697102199269, !- X,Y,Z Vertex 1 {m}
  -2.68494313890522, 23.1541294725484, 8.88001933615061, !- X,Y,Z Vertex 2 {m}
  -26.6606349958014, 0.731673026127122, 6.01049844896636; !- X,Y,Z Vertex 3 {m}

FenestrationSurface:Detailed,
  subsurface_19_low_iron_3mm,             !- Name
  Window,                                 !- Surface Type
  low_iron_3mm,                           !- Construction Name
  surface_19_generic_window_frame,        !- Building Surface Name
  ,                                       !- Outside Boundary Condition Object
  ,                                       !- View Factor to Ground
  ,                                       !- Frame and Divider Name
  ,                                       !- Multiplier
  ,                                       !- Number of Vertices
  1.07421142699417, 3.55727196698114, 8.30648884734462, !- X,Y,Z Vertex 1 {m}
  -2.6892649954617, 23.1451417327921, 8.87928306855112, !- X,Y,Z Vertex 2 {m}
  -26.6516842859488, 0.736041719396401, 6.01139249161245; !- X,Y,Z Vertex 3 {m}

BuildingSurface:Detailed,
  surface_1_generic_window_frame,         !- Name
  Wall,                                   !- Surface Type
  generic_window_frame,                   !- Construction Name
  Main Zone,                              !- Zone Name
  Main Space,                             !- Space Name