
OS:Version,
  {2326b70f-b420-4bd7-a4fb-eee1181f27fa}, !- Handle
  3.9.0;                                  !- Version Identifier

OS:Space,
  {48a56dbe-0501-4f41-9d68-3ae1e0934156}, !- Handle
  Main Space,                             !- Name
  ,                                       !- Space Type Name
  ,                                       !- Default Construction Set Name
  ,                                       !- Default Schedule Set Name
  ,                                       !- Direction of Relative North {deg}
  ,                                       !- X Origin {m}
  ,                                       !- Y Origin {m}
  ,                                       !- Z Origin {m}
  ,                                       !- Building Story Name
  {a13158f9-d56e-4efc-a5cd-4158f1f56f77}; !- Thermal Zone Name

OS:Construction,
  {8526e268-6e65-44a2-b0db-d761967792aa}, !- Handle
  clear_6mm,                              !- Name
  ,                                       !- Surface Rendering Name
  {a6fa1271-5fa2-44f9-a572-c60a1072ee3b}; !- Layer 1

OS:WindowMaterial:Glazing,
  {a6fa1271-5fa2-44f9-a572-c60a1072ee3b}, !- Handle
  clear_6mm,                              !- Name
  SpectralAverage,                        !- Optical Data Type
  ,                                       !- Window Glass Spectral Data Set Name
  0.006,                                  !- Thickness {m}
  0.775,                                  !- Solar Transmittance at Normal Incidence
  0.071,                                  !- Front Side Solar Reflectance at Normal Incidence
  0.071,                                  !- Back Side Solar Reflectance at Normal Incidence
  0.881,                                  !- Visible Transmittance at Normal Incidence
  0.08,                                   !- Front Side Visible Reflectance at Normal Incidence
  0.08,                                   !- Back Side Visible Reflectance at Normal Incidence
  0,                                      !- Infrared Transmittance at Normal Incidence
  0.84,                                   !- Front Side Infrared Hemispherical Emissivity
  0.84,                                   !- Back Side Infrared Hemispherical Emissivity
  0.9;                                    !- Conductivity {W/m-K}

OS:Construction,
  {db7323c3-dfe6-4aad-9bde-90afdc852771}, !- Handle
  M16_300mm_heavyweight_concrete,         !- Name
  ,                                       !- Surface Rendering Name
  {94cf055b-fcb9-4f8e-8626-c6acd20bcab9}; !- Layer 1

OS:Material,
  {94cf055b-fcb9-4f8e-8626-c6acd20bcab9}, !- Handle
  M16_300mm_heavyweight_concrete,         !- Name
  MediumRough,                            !- Roughness
  0.3048,                                 !- Thickness {m}
  1.95,                                   !- Conductivity {W/m-K}
  2240,                                   !- Density {kg/m3}
  900,                                    !- Specific Heat {J/kg-K}
  0.9,                                    !- Thermal Absorptance
  0.7,                                    !- Solar Absorptance
  0.7;                                    !- Visible Absorptance

OS:Construction,
  {59cae42f-6e63-4df3-afb6-680fb240bdfd}, !- Handle
  low_iron_3mm,                           !- Name
  ,                                       !- Surface Rendering Name
  {1142cc4d-47ec-4408-b52b-771e44468239}; !- Layer 1

OS:WindowMaterial:Glazing,
  {1142cc4d-47ec-4408-b52b-771e44468239}, !- Handle
  low_iron_3mm,                           !- Name
  SpectralAverage,                        !- Optical Data Type
  ,                                       !- Window Glass Spectral Data Set Name
  0.003,                                  !- Thickness {m}
  0.899,                                  !- Solar Transmittance at Normal Incidence
  0.079,                                  !- Front Side Solar Reflectance at Normal Incidence
  0.079,                                  !- Back Side Solar Reflectance at Normal Incidence
  0.913,                                  !- Visible Transmittance at Normal Incidence
  0.082,                                  !- Front Side Visible Reflectance at Normal Incidence
  0.082,                                  !- Back Side Visible Reflectance at Normal Incidence
  0,                                      !- Infrared Transmittance at Normal Incidence
  0.84,                                   !- Front Side Infrared Hemispherical Emissivity
  0.84,                                   !- Back Side Infrared Hemispherical Emissivity
  0.9;                                    !- Conductivity {W/m-K}

OS:Construction,
  {8afb9dc2-1d90-4c76-b176-edc11d80c304}, !- Handle
  generic_window_frame,                   !- Name
  ,                                       !- Surface Rendering Name
  {4b7e11b3-bd3f-43d2-a25e-caba8a77e322}; !- Layer 1

OS:Material,
  {4b7e11b3-bd3f-43d2-a25e-caba8a77e322}, !- Handle
  generic_window_frame,                   !- Name
  MediumSmooth,                           !- Roughness
  0.1,                                    !- Thickness {m}
  0.17,                                   !- Conductivity {W/m-K}
  700,                                    !- Density {kg/m3}
  1000,                                   !- Specific Heat {J/kg-K}
  0.9,                                    !- Thermal Absorptance
  0.7,                                    !- Solar Absorptance
  0.7;                                    !- Visible Absorptance

OS:Surface,
  {68b4f846-a337-44fb-92f7-84299af1c4e3}, !- Handle
  surface_0_generic_window_frame,         !- Name
  Wall,                                   !- Surface Type
  {8afb9dc2-1d90-4c76-b176-edc11d80c304}, !- Construction Name
  {48a56dbe-0501-4f41-9d68-3ae1e0934156}, !- Space Name
  Outdoors,                               !- Outside Boundary Condition
  ,                                       !- Outside Boundary Condition Object
  SunExposed,                             !- Sun Exposure
  WindExposed,                            !- Wind Exposure
  ,                                       !- View Factor to Ground
  ,                                       !- Number of Vertices
  -24.1341017613541, -21.1285778499513, 4.65911938477158, !- X,Y,Z Vertex 1 {m}
  -26.6606349958014, 0.731673026127122, 6.01049844896636, !- X,Y,Z Vertex 2 {m}
  -24.1267305338836, -21.0143882499718, 2.37211170292467; !- X,Y,Z Vertex 3 {m}

OS:SubSurface,
  {76f76395-3e3e-4e1f-ac24-23c7b80c43b7}, !- Handle
  subsurface_0_low_iron_3mm,              !- Name
  FixedWindow,                            !- Sub Surface Type
  {59cae42f-6e63-4df3-afb6-680fb240bdfd}, !- Construction Name
  {68b4f846-a337-44fb-92f7-84299af1c4e3}, !- Surface Name
  ,                                       !- Outside Boundary Condition Object
  ,                                       !- View Factor to Ground
  ,                                       !- Frame and Divider Name
  ,                                       !- Multiplier
  ,                                       !- Number of Vertices
  -24.135239689408, -21.118651798265, 4.65869675294038, !- X,Y,Z Vertex 1 {m}
  -26.6594896243141, 0.721803242206989, 6.00936907324233, !- X,Y,Z Vertex 2 {m}
  -24.1278563747854, -21.0048048560815, 2.37473678269623; !- X,Y,Z Vertex 3 {m}

OS:Surface,
  {763ae28d-f40f-491c-97e9-32fd70ee66b1}, !- Handle
  surface_1_generic_window_frame,         !- Name
  Wall,                                   !- Surface Type
  {8afb9dc2-1d90-4c76-b176-edc11d80c304}, !- Construction Name
  {48a56dbe-0501-4f41-9d68-3ae1e0934156}, !- Space Name
  Outdoors,                               !- Outside Boundary Condition
  ,                                       !- Outside Boundary Condition Object
  SunExposed,                             !- Sun Exposure
  WindExposed,                            !- Wind Exposure
  ,                                       !- View Factor to Ground
  ,                                       !- Number of Vertices
  -26.6606349958014, 0.731673026127122, 6.01049844896636, !- X,Y,Z Vertex 1 {m}
  -29.2151270279545, 21.7626296298315, 6.87371072415902, !- X,Y,Z Vertex 2 {m}
  -27.9589704341006, 2.52202849694, 3.25752350815678; !- X,Y,Z Vertex 3 {m}

OS:SubSurface,
  {d00add0d-243c-4b87-a735-9611af8b6600}, !- Handle
  subsurface_1_low_iron_3mm,              !- Name
  FixedWindow,                            !- Sub Surface Type
  {59cae42f-6e63-4df3-afb6-680fb240bdfd}, !- Construction Name
  {763ae28d-f40f-491c-97e9-32fd70ee66b1}, !- Surface Name
  ,                                       !- Outside Boundary Condition Object
  ,                                       !- View Factor to Ground
  ,                                       !- Frame and Divider Name
  ,                                       !- Multiplier
  ,                                       !- Number of Vertices
  -26.6622941755484, 0.741500784853743, 6.00968464249162, !- X,Y,Z Vertex 1 {m}
  -29.214190720813, 21.7527345828704, 6.87261009952928, !- X,Y,Z Vertex 2 {m}
  -27.9589477283762, 2.53142231684868, 3.26095215686631; !- X,Y,Z Vertex 3 {m}

OS:Surface,
  {378d7672-dcf0-481b-bf48-8472c0a69805}, !- Handle
  surface_2_generic_window_frame,         !- Name
  Wall,                                   !- Surface Type
  {8afb9dc2-1d90-4c76-b176-edc11d80c304}, !- Construction Name
  {48a56dbe-0501-4f41-9d68-3ae1e0934156}, !- Space Name
  Outdoors,                               !- Outside Boundary Condition
  ,                                       !- Outside Boundary Condition Object
  SunExposed,                             !- Sun Exposure
  WindExposed,                            !- Wind Exposure
  ,                                       !- View Factor to Ground
  ,                                       !- Number of Vertices
  -24.1267305338836, -21.0143882499718, 2.37211170292467, !- X,Y,Z Vertex 1 {m}
  -27.9589704341006, 2.52202849694, 3.25752350815678, !- X,Y,Z Vertex 2 {m}
  -24.1195896473682, -21.0302933455458, 0; !- X,Y,Z Vertex 3 {m}

OS:SubSurface,
  {ea45ac0f-dc87-4e87-ba3e-a1dfa3f5bcb0}, !- Handle
  subsurface_2_low_iron_3mm,              !- Name
  FixedWindow,                            !- Sub Surface Type
  {59cae42f-6e63-4df3-afb6-680fb240bdfd}, !- Construction Name
  {378d7672-dcf0-481b-bf48-8472c0a69805}, !- Surface Name
  ,                                       !- Outside Boundary Condition Object
  ,                                       !- View Factor to Ground
  ,                                       !- Frame and Divider Name
  ,                                       !- Multiplier
  ,                                       !- Number of Vertices
  -24.1283326126794, -21.0045370767478, 2.37148902351865, !- X,Y,Z Vertex 1 {m}
  -27.9573684789833, 2.51219562735157, 3.25665839807164, !- X,Y,Z Vertex 2 {m}
  -24.1211574378778, -21.0206872531687, 0.0022945636101098; !- X,Y,Z Vertex 3 {m}

OS:Surface,
  {e39a705b-53ed-4f47-a91f-5ae45da8a154}, !- Handle
  surface_3_generic_window_frame,         !- Name
  Wall,                                   !- Surface Type
  {8afb9dc2-1d90-4c76-b176-edc11d80c304}, !- Construction Name
  {48a56dbe-0501-4f41-9d68-3ae1e0934156}, !- Space Name
  Outdoors,                               !- Outside Boundary Condition
  ,                                       !- Outside Boundary Condition Object
  SunExposed,                             !- Sun Exposure
  WindExposed,                            !- Wind Exposure
  ,                                       !- View Factor to Ground
  ,                                       !- Number of Vertices
  -26.6606349958014, 0.731673026127122, 6.01049844896636, !- X,Y,Z Vertex 1 {m}
  -27.9589704341006, 2.52202849694, 3.25752350815678, !- X,Y,Z Vertex 2 {m}
  -24.1267305338836, -21.0143882499718, 2.37211170292467; !- X,Y,Z Vertex 3 {m}

OS:SubSurface,
  {c2fbb294-3087-4c65-b98c-a2cc691da3ea}, !- Handle
  subsurface_3_low_iron_3mm,              !- Name
  FixedWindow,                            !- Sub Surface Type
  {59cae42f-6e63-4df3-afb6-680fb240bdfd}, !- Construction Name
  {e39a705b-53ed-4f47-a91f-5ae45da8a154}, !- Surface Name
  ,                                       !- Outside Boundary Condition Object
  ,                                       !- View Factor to Ground
  ,                                       !- Frame and Divider Name
  ,                                       !- Multiplier
  ,                                       !- Number of Vertices
  -26.6600463668131, 0.722166064804229, 6.00745358405653, !- X,Y,Z Vertex 1 {m}
  -27.9569901751572, 2.51225306945229, 3.25824433542421, !- X,Y,Z Vertex 2 {m}
  -24.1281159537681, -21.0045337380559, 2.37309618585659; !- X,Y,Z Vertex 3 {m}

OS:Surface,
  {d318c2fc-bda9-4137-a4ef-3eabd9b874c8}, !- Handle
  surface_4_generic_window_frame,         !- Name
  Wall,                                   !- Surface Type
  {8afb9dc2-1d90-4c76-b176-edc11d80c304}, !- Construction Name
  {48a56dbe-0501-4f41-9d68-3ae1e0934156}, !- Space Name
  Outdoors,                               !- Outside Boundary Condition
  ,                                       !- Outside Boundary Condition Object
  SunExposed,                             !- Sun Exposure
  WindExposed,                            !- Wind Exposure
  ,                                       !- View Factor to Ground
  ,                                       !- Number of Vertices
  20.2764377329789, -25.3569793707792, 0, !- X,Y,Z Vertex 1 {m}
  -1.85357882249196, -23.2679316877272, 2.32817072042094, !- X,Y,Z Vertex 2 {m}
  -1.90138510419967, -23.1789252386814, 0; !- X,Y,Z Vertex 3 {m}

OS:SubSurface,
  {018248ce-669b-4b68-a415-9efe53be8ee1}, !- Handle
  subsurface_4_low_iron_3mm,              !- Name
  FixedWindow,                            !- Sub Surface Type
  {59cae42f-6e63-4df3-afb6-680fb240bdfd}, !- Construction Name
  {d318c2fc-bda9-4137-a4ef-3eabd9b874c8}, !- Surface Name
  ,                                       !- Outside Boundary Condition Object
  ,                                       !- View Factor to Ground
  ,                                       !- Frame and Divider Name
  ,                                       !- Multiplier
  ,                                       !- Number of Vertices
  20.2664973742419, -25.3560220566021, 0.000522319582249773, !- X,Y,Z Vertex 1 {m}
  -1.84383219200738, -23.2688144645244, 2.32611550770123, !- X,Y,Z Vertex 2 {m}
  -1.89149030709756, -23.1799345286479, 0.00103649605482071; !- X,Y,Z Vertex 3 {m}

OS:Surface,
  {15ef9573-eaf1-40e5-b023-6e3527956a6d}, !- Handle
  surface_5_generic_window_frame,         !- Name
  Wall,                                   !- Surface Type
  {8afb9dc2-1d90-4c76-b176-edc11d80c304}, !- Construction Name
  {48a56dbe-0501-4f41-9d68-3ae1e0934156}, !- Space Name
  Outdoors,                               !- Outside Boundary Condition
  ,                                       !- Outside Boundary Condition Object
  SunExposed,                             !- Sun Exposure
  WindExposed,                            !- Wind Exposure
  ,                                       !- View Factor to Ground
  ,                                       !- Number of Vertices
  -1.85357882249196, -23.2679316877272, 2.32817072042094, !- X,Y,Z Vertex 1 {m}
  -24.1341017613541, -21.1285778499513, 4.65911938477158, !- X,Y,Z Vertex 2 {m}
  -24.1267305338836, -21.0143882499718, 2.37211170292467; !- X,Y,Z Vertex 3 {m}

OS:SubSurface,
  {9155133d-7fa6-4d23-bb36-b2d6d05bbed3}, !- Handle
  subsurface_5_low_iron_3mm,              !- Name
  FixedWindow,                            !- Sub Surface Type
  {59cae42f-6e63-4df3-afb6-680fb240bdfd}, !- Construction Name
  {15ef9573-eaf1-40e5-b023-6e3527956a6d}, !- Surface Name
  ,                                       !- Outside Boundary Condition Object
  ,                                       !- View Factor to Ground
  ,                                       !- Frame and Divider Name
  ,                                       !- Multiplier
  ,                                       !- Number of Vertices
  -1.86351659392287, -23.266951844664, 2.32870044351716, !- X,Y,Z Vertex 1 {m}
  -24.1243482689093, -21.1294640899857, 4.65709850285259, !- X,Y,Z Vertex 2 {m}
  -24.1168361214913, -21.0154404173157, 2.37310847134977; !- X,Y,Z Vertex 3 {m}

OS:Surface,
  {45282a46-7fcd-4b43-9228-8d42bec8f130}, !- Handle
  surface_6_generic_window_frame,         !- Name
  Wall,                                   !- Surface Type
  {8afb9dc2-1d90-4c76-b176-edc11d80c304}, !- Construction Name
  {48a56dbe-0501-4f41-9d68-3ae1e0934156}, !- Space Name
  Outdoors,                               !- Outside Boundary Condition
  ,                                       !- Outside Boundary Condition Object
  SunExposed,                             !- Sun Exposure
  WindExposed,                            !- Wind Exposure
  ,                                       !- View Factor to Ground
  ,                                       !- Number of Vertices
  -1.90138510419967, -23.1789252386814, 0, !- X,Y,Z Vertex 1 {m}
  -24.1267305338836, -21.0143882499718, 2.37211170292467, !- X,Y,Z Vertex 2 {m}
  -24.1195896473682, -21.0302933455458, 0; !- X,Y,Z Vertex 3 {m}

OS:SubSurface,
  {c0b5fbbb-14c3-4c5c-8a1e-f7e93baa3466}, !- Handle
  subsurface_6_low_iron_3mm,              !- Name
  FixedWindow,                            !- Sub Surface Type
  {59cae42f-6e63-4df3-afb6-680fb240bdfd}, !- Construction Name
  {45282a46-7fcd-4b43-9228-8d42bec8f130}, !- Surface Name
  ,                                       !- Outside Boundary Condition Object
  ,                                       !- View Factor to Ground
  ,                                       !- Frame and Divider Name
  ,                                       !- Multiplier
  ,                                       !- Number of Vertices
  -1.91132432728281, -23.177960654445, 0.000530491992829243, !- X,Y,Z Vertex 1 {m}
  -24.1169953992724, -21.015343019353, 2.37003430803395, !- X,Y,Z Vertex 2 {m}
  -24.1096912087883, -21.0312438027386, 0.00105713991725073; !- X,Y,Z Vertex 3 {m}

OS:Surface,
  {623ca9d4-580f-4669-9653-e3aabf5bc679}, !- Handle
  surface_7_generic_window_frame,         !- Name
  Wall,                                   !- Surface Type
  {8afb9dc2-1d90-4c76-b176-edc11d80c304}, !- Construction Name
  {48a56dbe-0501-4f41-9d68-3ae1e0934156}, !- Space Name
  Outdoors,                               !- Outside Boundary Condition
  ,                                       !- Outside Boundary Condition Object
  SunExposed,                             !- Sun Exposure
  WindExposed,                            !- Wind Exposure
  ,                                       !- View Factor to Ground
  ,                                       !- Number of Vertices
  -1.85357882249196, -23.2679316877272, 2.32817072042094, !- X,Y,Z Vertex 1 {m}
  -24.1267305338836, -21.0143882499718, 2.37211170292467, !- X,Y,Z Vertex 2 {m}
  -1.90138510419967, -23.1789252386814, 0; !- X,Y,Z Vertex 3 {m}

OS:SubSurface,
  {034a2232-2c7b-47de-a996-d9c528986f4d}, !- Handle
  subsurface_7_low_iron_3mm,              !- Name
  FixedWindow,                            !- Sub Surface Type
  {59cae42f-6e63-4df3-afb6-680fb240bdfd}, !- Construction Name
  {623ca9d4-580f-4669-9653-e3aabf5bc679}, !- Surface Name
  ,                                       !- Outside Boundary Condition Object
  ,                                       !- View Factor to Ground
  ,                                       !- Frame and Divider Name
  ,                                       !- Multiplier
  ,                                       !- Number of Vertices
  -1.86347308955806, -23.26689329976, 2.32715818417252, !- X,Y,Z Vertex 1 {m}
  -24.1167939538531, -21.0153748138461, 2.37157219479722, !- X,Y,Z Vertex 2 {m}
  -1.9111270638979, -23.1780135173792, 0.00206469985840238; !- X,Y,Z Vertex 3 {m}

OS:Surface,
  {09d4741c-2fd8-480b-9f80-5da2d6930874}, !- Handle
  surface_8_generic_window_frame,         !- Name
  Wall,                                   !- Surface Type
  {8afb9dc2-1d90-4c76-b176-edc11d80c304}, !- Construction Name
  {48a56dbe-0501-4f41-9d68-3ae1e0934156}, !- Space Name
  Outdoors,                               !- Outside Boundary Condition
  ,                                       !- Outside Boundary Condition Object
  SunExposed,                             !- Sun Exposure
  WindExposed,                            !- Wind Exposure
  ,                                       !- View Factor to Ground
  ,                                       !- Number of Vertices
  -24.1195896473682, -21.0302933455458, 0, !- X,Y,Z Vertex 1 {m}
  -27.9589704341006, 2.52202849694, 3.25752350815678, !- X,Y,Z Vertex 2 {m}
  -27.5404770534722, 1.26528638011644, 0; !- X,Y,Z Vertex 3 {m}

OS:SubSurface,
  {30bc3ff1-ed0c-4f11-b7fb-563bddba371f}, !- Handle
  subsurface_8_clear_6mm,                 !- Name
  FixedWindow,                            !- Sub Surface Type
  {8526e268-6e65-44a2-b0db-d761967792aa}, !- Construction Name
  {09d4741c-2fd8-480b-9f80-5da2d6930874}, !- Surface Name
  ,                                       !- Outside Boundary Condition Object
  ,                                       !- View Factor to Ground
  ,                                       !- Frame and Divider Name
  ,                                       !- Multiplier
  ,                                       !- Number of Vertices
  -24.1211498762305, -21.0204406490055, 0.00070004055803694, !- X,Y,Z Vertex 1 {m}
  -27.9573328688986, 2.51248700786898, 3.2550178412761, !- X,Y,Z Vertex 2 {m}
  -27.5390806039999, 1.2555009644024, 0.00151511325474493; !- X,Y,Z Vertex 3 {m}

OS:Surface,
  {38ecf156-2513-4ec5-8b69-a3f724c86744}, !- Handle
  surface_9_generic_window_frame,         !- Name
  Wall,                                   !- Surface Type
  {8afb9dc2-1d90-4c76-b176-edc11d80c304}, !- Construction Name
  {48a56dbe-0501-4f41-9d68-3ae1e0934156}, !- Space Name
  Outdoors,                               !- Outside Boundary Condition
  ,                                       !- Outside Boundary Condition Object
  SunExposed,                             !- Sun Exposure
  WindExposed,                            !- Wind Exposure
  ,                                       !- View Factor to Ground
  ,                                       !- Number of Vertices
  -27.9589704341006, 2.52202849694, 3.25752350815678, !- X,Y,Z Vertex 1 {m}
  -29.2151270279545, 21.7626296298315, 6.87371072415902, !- X,Y,Z Vertex 2 {m}
  -30.0771036606448, 23.1100146868179, 3.73941275658601; !- X,Y,Z Vertex 3 {m}

OS:SubSurface,
  {4fbdc5e5-b036-4b48-959b-538836cd0034}, !- Handle
  subsurface_9_clear_6mm,                 !- Name
  FixedWindow,                            !- Sub Surface Type
  {8526e268-6e65-44a2-b0db-d761967792aa}, !- Construction Name
  {38ecf156-2513-4ec5-8b69-a3f724c86744}, !- Surface Name
  ,                                       !- Outside Boundary Condition Object
  ,                                       !- View Factor to Ground
  ,                                       !- Frame and Divider Name
  ,                                       !- Multiplier
  ,                                       !- Number of Vertices
  -27.9598102108322, 2.5319408407722, 3.25854341736513, !- X,Y,Z Vertex 1 {m}
  -29.2149209562719, 21.7532753107229, 6.87018166642691, !- X,Y,Z Vertex 2 {m}
  -30.0757670020031, 23.1001760886046, 3.74060243253867; !- X,Y,Z Vertex 3 {m}

OS:Surface,
  {934b00db-c927-4e96-af81-fd9e490e6b15}, !- Handle
  surface_10_generic_window_frame,        !- Name
  Wall,                                   !- Surface Type
  {8afb9dc2-1d90-4c76-b176-edc11d80c304}, !- Construction Name
  {48a56dbe-0501-4f41-9d68-3ae1e0934156}, !- Space Name
  Outdoors,                               !- Outside Boundary Condition
  ,                                       !- Outside Boundary Condition Object
  SunExposed,                             !- Sun Exposure
  WindExposed,                            !- Wind Exposure
  ,                                       !- View Factor to Ground
  ,                                       !- Number of Vertices
  -27.5404770534722, 1.26528638011644, 0, !- X,Y,Z Vertex 1 {m}
  -30.0771036606448, 23.1100146868179, 3.73941275658601, !- X,Y,Z Vertex 2 {m}
  -30.8750986703476, 23.4495637764163, 0; !- X,Y,Z Vertex 3 {m}

OS:SubSurface,
  {254cabc1-c114-400d-9534-02530d71848f}, !- Handle
  subsurface_10_clear_6mm,                !- Name
  FixedWindow,                            !- Sub Surface Type
  {8526e268-6e65-44a2-b0db-d761967792aa}, !- Construction Name
  {934b00db-c927-4e96-af81-fd9e490e6b15}, !- Surface Name
  ,                                       !- Outside Boundary Condition Object
  ,                                       !- View Factor to Ground
  ,                                       !- Frame and Divider Name
  ,                                       !- Multiplier
  ,                                       !- Number of Vertices
  -27.5417941894791, 1.27516369862638, 0.000838887234613024, !- X,Y,Z Vertex 1 {m}
  -30.0763422652852, 23.1005969679141, 3.73613756991109, !- X,Y,Z Vertex 2 {m}
  -30.8733176091194, 23.4398565333573, 0.00161159954543547; !- X,Y,Z Vertex 3 {m}

OS:Surface,
  {675bef65-0f1a-4591-893a-cd2483b88ede}, !- Handle
  surface_11_generic_window_frame,        !- Name
  Wall,                                   !- Surface Type
  {8afb9dc2-1d90-4c76-b176-edc11d80c304}, !- Construction Name
  {48a56dbe-0501-4f41-9d68-3ae1e0934156}, !- Space Name
  Outdoors,                               !- Outside Boundary Condition
  ,                                       !- Outside Boundary Condition Object
  SunExposed,                             !- Sun Exposure
  WindExposed,                            !- Wind Exposure
  ,                                       !- View Factor to Ground
  ,                                       !- Number of Vertices
  -27.9589704341006, 2.52202849694, 3.25752350815678, !- X,Y,Z Vertex 1 {m}
  -30.0771036606448, 23.1100146868179, 3.73941275658601, !- X,Y,Z Vertex 2 {m}
  -27.5404770534722, 1.26528638011644, 0; !- X,Y,Z Vertex 3 {m}

OS:SubSurface,
  {839b593b-6560-4fae-8420-d448584c78a4}, !- Handle
  subsurface_11_clear_6mm,                !- Name
  FixedWindow,                            !- Sub Surface Type
  {8526e268-6e65-44a2-b0db-d761967792aa}, !- Construction Name
  {675bef65-0f1a-4591-893a-cd2483b88ede}, !- Surface Name
  ,                                       !- Outside Boundary Condition Object
  ,                                       !- View Factor to Ground
  ,                                       !- Frame and Divider Name
  ,                                       !- Multiplier
  ,                                       !- Number of Vertices
  -27.9598374506921, 2.5318897092349, 3.25610760762887, !- X,Y,Z Vertex 1 {m}
  -30.0760185204851, 23.1001225668744, 3.73842866621502, !- X,Y,Z Vertex 2 {m}
  -27.5416922493494, 1.27478609983427, 0.00287725985316055; !- X,Y,Z Vertex 3 {m}

OS:Surface,
  {39d04869-70b7-405d-894e-b231fbc65f46}, !- Handle
  surface_12_M16_300mm_heavyweight_concrete, !- Name
  Floor,                                  !- Surface Type
  {db7323c3-dfe6-4aad-9bde-90afdc852771}, !- Construction Name
  {48a56dbe-0501-4f41-9d68-3ae1e0934156}, !- Space Name
  Ground,                                 !- Outside Boundary Condition
  ,                                       !- Outside Boundary Condition Object
  NoSun,                                  !- Sun Exposure
  NoWind,                                 !- Wind Exposure
  ,                                       !- View Factor to Ground
  ,                                       !- Number of Vertices
  -30.8750986703476, 23.4495637764163, 0, !- X,Y,Z Vertex 1 {m}
  -5.18383935174527, -0.97566658883449, 0, !- X,Y,Z Vertex 2 {m}
  -27.5404770534722, 1.26528638011644, 0; !- X,Y,Z Vertex 3 {m}

OS:Surface,
  {8de10d27-71f3-4a57-b853-1fd127d1b84e}, !- Handle
  surface_13_M16_300mm_heavyweight_concrete, !- Name
  Floor,                                  !- Surface Type
  {db7323c3-dfe6-4aad-9bde-90afdc852771}, !- Construction Name
  {48a56dbe-0501-4f41-9d68-3ae1e0934156}, !- Space Name
  Ground,                                 !- Outside Boundary Condition
  ,                                       !- Outside Boundary Condition Object
  NoSun,                                  !- Sun Exposure
  NoWind,                                 !- Wind Exposure
  ,                                       !- View Factor to Ground
  ,                                       !- Number of Vertices
  -5.18383935174527, -0.97566658883449, 0, !- X,Y,Z Vertex 1 {m}
  20.2764377329789, -25.3569793707792, 0, !- X,Y,Z Vertex 2 {m}
  -1.90138510419967, -23.1789252386814, 0; !- X,Y,Z Vertex 3 {m}

OS:Surface,
  {4e94ceda-7e48-47e9-a179-6faf6d30f549}, !- Handle
  surface_14_M16_300mm_heavyweight_concrete, !- Name
  Floor,                                  !- Surface Type
  {db7323c3-dfe6-4aad-9bde-90afdc852771}, !- Construction Name
  {48a56dbe-0501-4f41-9d68-3ae1e0934156}, !- Space Name
  Ground,                                 !- Outside Boundary Condition
  ,                                       !- Outside Boundary Condition Object
  NoSun,                                  !- Sun Exposure
  NoWind,                                 !- Wind Exposure
  ,                                       !- View Factor to Ground
  ,                                       !- Number of Vertices
  -27.5404770534722, 1.26528638011644, 0, !- X,Y,Z Vertex 1 {m}
  -1.90138510419967, -23.1789252386814, 0, !- X,Y,Z Vertex 2 {m}
  -24.1195896473682, -21.0302933455458, 0; !- X,Y,Z Vertex 3 {m}

OS:Surface,
  {872b4cff-8c5f-4b92-bfa6-4597c9247242}, !- Handle
  surface_15_M16_300mm_heavyweight_concrete, !- Name
  Floor,                                  !- Surface Type
  {db7323c3-dfe6-4aad-9bde-90afdc852771}, !- Construction Name
  {48a56dbe-0501-4f41-9d68-3ae1e0934156}, !- Space Name
  Ground,                                 !- Outside Boundary Condition