
OS:Version,
  {c983c54b-b51f-4fb5-be51-2e3a83887b6c}, !- Handle
  3.9.0;                                  !- Version Identifier

OS:Space,
  {2b7fc8e3-f7ff-4806-b350-eeee7f2a502b}, !- Handle
  Main Space,                             !- Name
  ,                                       !- Space Type Name
  ,                                       !- Default Construction Set Name
  ,                                       !- Default Schedule Set Name
  ,                                       !- Direction of Relative North {deg}
  ,                                       !- X Origin {m}
  ,                                       !- Y Origin {m}
  ,                                       !- Z Origin {m}
  ,                                       !- Building Story Name
  {5887ad26-9431-41bc-84ec-ba72c69285c0}; !- Thermal Zone Name

OS:Construction,
  {c82aab3e-c358-40dd-8637-b35163776973}, !- Handle
  clear_6mm,                              !- Name
  ,                                       !- Surface Rendering Name
  {6c0f88a6-1975-4ae1-a999-45765c380987}; !- Layer 1

OS:WindowMaterial:Glazing,
  {6c0f88a6-1975-4ae1-a999-45765c380987}, !- Handle
  clear_6mm,                              !- Name
  SpectralAverage,                        !- Optical Data Type
  ,                                       !- Window Glass Spectral Data Set Name
  0.006,                                  !- Thickness {m}
  0.775,                                  !- Solar Transmittance at Normal Incidence
  0.071,                                  !- Front Side Solar Reflectance at Normal Incidence
  0.071,                                  !- Back Side Solar Reflectance at Normal Incidence
  0.881,                                  !- Visible Transmittance at Normal Incidence
  0.08,                                   !- Front Side Visible Reflectance at Normal Incidence
  0.08,                                   !- Back Side Visible Reflectance at Normal Incidence
  0,                                      !- Infrared Transmittance at Normal Incidence
  0.84,                                   !- Front Side Infrared Hemispherical Emissivity
  0.84,                                   !- Back Side Infrared Hemispherical Emissivity
  0.9;                                    !- Conductivity {W/m-K}

OS:Construction,
  {a296ea9b-3615-4245-bf01-f54abb9bdada}, !- Handle
  M16_300mm_heavyweight_concrete,         !- Name
  ,                                       !- Surface Rendering Name
  {445ed35d-d272-4386-a1a0-9894dacaf7ad}; !- Layer 1

OS:Material,
  {445ed35d-d272-4386-a1a0-9894dacaf7ad}, !- Handle
  M16_300mm_heavyweight_concrete,         !- Name
  MediumRough,                            !- Roughness
  0.3048,                                 !- Thickness {m}
  1.95,                                   !- Conductivity {W/m-K}
  2240,                                   !- Density {kg/m3}
  900,                                    !- Specific Heat {J/kg-K}
  0.9,                                    !- Thermal Absorptance
  0.7,                                    !- Solar Absorptance
  0.7;                                    !- Visible Absorptance

OS:Construction,
  {ba69343e-3fb2-4389-b77d-1239cdd35668}, !- Handle
  low_iron_3mm,                           !- Name
  ,                                       !- Surface Rendering Name
  {c47284c8-2019-469c-9757-891095d123de}; !- Layer 1

OS:WindowMaterial:Glazing,
  {c47284c8-2019-469c-9757-891095d123de}, !- Handle
  low_iron_3mm,                           !- Name
  SpectralAverage,                        !- Optical Data Type
  ,                                       !- Window Glass Spectral Data Set Name
  0.003,                                  !- Thickness {m}
  0.899,                                  !- Solar Transmittance at Normal Incidence
  0.079,                                  !- Front Side Solar Reflectance at Normal Incidence
  0.079,                                  !- Back Side Solar Reflectance at Normal Incidence
  0.913,                                  !- Visible Transmittance at Normal Incidence
  0.082,                                  !- Front Side Visible Reflectance at Normal Incidence
  0.082,                                  !- Back Side Visible Reflectance at Normal Incidence
  0,                                      !- Infrared Transmittance at Normal Incidence
  0.84,                                   !- Front Side Infrared Hemispherical Emissivity
  0.84,                                   !- Back Side Infrared Hemispherical Emissivity
  0.9;                                    !- Conductivity {W/m-K}

OS:Construction,
  {627d7994-7892-4291-ae4b-1e5418866f9a}, !- Handle
  generic_window_frame,                   !- Name
  ,                                       !- Surface Rendering Name
  {36baac92-8d6c-4fdd-80ab-ceadd36330c5}; !- Layer 1

OS:Material,
  {36baac92-8d6c-4fdd-80ab-ceadd36330c5}, !- Handle
  generic_window_frame,                   !- Name
  MediumSmooth,                           !- Roughness
  0.1,                                    !- Thickness {m}
  0.17,                                   !- Conductivity {W/m-K}
  700,                                    !- Density {kg/m3}
  1000,                                   !- Specific Heat {J/kg-K}
  0.9,                                    !- Thermal Absorptance
  0.7,                                    !- Solar Absorptance
  0.7;                                    !- Visible Absorptance

OS:Surface,
  {a8141763-a531-45f8-800e-754e75afc95a}, !- Handle
  surface_0_generic_window_frame,         !- Name
  Wall,                                   !- Surface Type
  {627d7994-7892-4291-ae4b-1e5418866f9a}, !- Construction Name
  {2b7fc8e3-f7ff-4806-b350-eeee7f2a502b}, !- Space Name
  Outdoors,                               !- Outside Boundary Condition
  ,                                       !- Outside Boundary Condition Object
  SunExposed,                             !- Sun Exposure
  WindExposed,                            !- Wind Exposure
  ,                                       !- View Factor to Ground
  ,                                       !- Number of Vertices
  -24.1341017613808, -21.1285778499501, 4.65911938477286, !- X,Y,Z Vertex 1 {m}
  -26.6606349939748, 0.731673026083807, 6.01049844785015, !- X,Y,Z Vertex 2 {m}
  -24.1267305339607, -21.0143882500011, 2.37211170288397; !- X,Y,Z Vertex 3 {m}

OS:SubSurface,
  {b4cc2319-6663-4aa9-b627-50ecbca0befd}, !- Handle
  subsurface_0_low_iron_3mm,              !- Name
  FixedWindow,                            !- Sub Surface Type
  {ba69343e-3fb2-4389-b77d-1239cdd35668}, !- Construction Name
  {a8141763-a531-45f8-800e-754e75afc95a}, !- Surface Name
  ,                                       !- Outside Boundary Condition Object
  ,                                       !- View Factor to Ground
  ,                                       !- Frame and Divider Name
  ,                                       !- Multiplier
  ,                                       !- Number of Vertices
  -24.1352396894339, -21.1186517982638, 4.65869675294114, !- X,Y,Z Vertex 1 {m}
  -26.6594896224884, 0.721803242163524, 6.0093690721266, !- X,Y,Z Vertex 2 {m}
  -24.1278563748616, -21.0048048561105, 2.37473678265512; !- X,Y,Z Vertex 3 {m}

OS:Surface,
  {a41bb3b7-5e43-4997-9c9a-33f2380e7aa9}, !- Handle
  surface_1_generic_window_frame,         !- Name
  Wall,                                   !- Surface Type
  {627d7994-7892-4291-ae4b-1e5418866f9a}, !- Construction Name
  {2b7fc8e3-f7ff-4806-b350-eeee7f2a502b}, !- Space Name
  Outdoors,                               !- Outside Boundary Condition
  ,                                       !- Outside Boundary Condition Object
  SunExposed,                             !- Sun Exposure
  WindExposed,                            !- Wind Exposure
  ,                                       !- View Factor to Ground
  ,                                       !- Number of Vertices
  -26.6606349939748, 0.731673026083807, 6.01049844785015, !- X,Y,Z Vertex 1 {m}
  -29.2151270260902, 21.7626296269101, 6.8737107243832, !- X,Y,Z Vertex 2 {m}
  -27.9597904252993, 2.52322307093809, 3.25738418155282; !- X,Y,Z Vertex 3 {m}

OS:SubSurface,
  {eb1d35a3-66ff-4bb3-a3ea-22d78a01d2e5}, !- Handle
  subsurface_1_low_iron_3mm,              !- Name
  FixedWindow,                            !- Sub Surface Type
  {ba69343e-3fb2-4389-b77d-1239cdd35668}, !- Construction Name
  {a41bb3b7-5e43-4997-9c9a-33f2380e7aa9}, !- Surface Name
  ,                                       !- Outside Boundary Condition Object
  ,                                       !- View Factor to Ground
  ,                                       !- Frame and Divider Name
  ,                                       !- Multiplier
  ,                                       !- Number of Vertices
  -26.6622944324138, 0.741500739999514, 6.00968462768691, !- X,Y,Z Vertex 1 {m}
  -29.2141908918257, 21.752734571141, 6.87261003188969, !- X,Y,Z Vertex 2 {m}
  -27.9597668340132, 2.53261668937509, 3.26081337622667; !- X,Y,Z Vertex 3 {m}

OS:Surface,
  {6fd65090-0cc2-4e8b-9c1f-a3e7d7b7af46}, !- Handle
  surface_2_generic_window_frame,         !- Name
  Wall,                                   !- Surface Type
  {627d7994-7892-4291-ae4b-1e5418866f9a}, !- Construction Name
  {2b7fc8e3-f7ff-4806-b350-eeee7f2a502b}, !- Space Name
  Outdoors,                               !- Outside Boundary Condition
  ,                                       !- Outside Boundary Condition Object
  SunExposed,                             !- Sun Exposure
  WindExposed,                            !- Wind Exposure
  ,                                       !- View Factor to Ground
  ,                                       !- Number of Vertices
  -24.1267305339607, -21.0143882500011, 2.37211170288397, !- X,Y,Z Vertex 1 {m}
  -27.9597904252993, 2.52322307093809, 3.25738418155282, !- X,Y,Z Vertex 2 {m}
  -24.119589647466, -21.0302933454697, 0; !- X,Y,Z Vertex 3 {m}

OS:SubSurface,
  {8f3a28d0-0af9-419c-b884-88cb85a028aa}, !- Handle
  subsurface_2_low_iron_3mm,              !- Name
  FixedWindow,                            !- Sub Surface Type
  {ba69343e-3fb2-4389-b77d-1239cdd35668}, !- Construction Name
  {6fd65090-0cc2-4e8b-9c1f-a3e7d7b7af46}, !- Surface Name
  ,                                       !- Outside Boundary Condition Object
  ,                                       !- View Factor to Ground
  ,                                       !- Frame and Divider Name
  ,                                       !- Multiplier
  ,                                       !- Number of Vertices
  -24.128332867821, -21.0045371197788, 2.37148899946795, !- X,Y,Z Vertex 1 {m}
  -27.9581882143088, 2.51339023380812, 3.25651917639829, !- X,Y,Z Vertex 2 {m}
  -24.1211576926797, -21.0206872533118, 0.00229439047713773; !- X,Y,Z Vertex 3 {m}

OS:Surface,
  {80454771-240f-482f-a683-308b1d236c5f}, !- Handle
  surface_3_generic_window_frame,         !- Name
  Wall,                                   !- Surface Type
  {627d7994-7892-4291-ae4b-1e5418866f9a}, !- Construction Name
  {2b7fc8e3-f7ff-4806-b350-eeee7f2a502b}, !- Space Name
  Outdoors,                               !- Outside Boundary Condition
  ,                                       !- Outside Boundary Condition Object
  SunExposed,                             !- Sun Exposure
  WindExposed,                            !- Wind Exposure
  ,                                       !- View Factor to Ground
  ,                                       !- Number of Vertices
  -26.6606349939748, 0.731673026083807, 6.01049844785015, !- X,Y,Z Vertex 1 {m}
  -27.9597904252993, 2.52322307093809, 3.25738418155282, !- X,Y,Z Vertex 2 {m}
  -24.1267305339607, -21.0143882500011, 2.37211170288397; !- X,Y,Z Vertex 3 {m}

OS:SubSurface,
  {518bc189-963c-409c-afce-742860df54d5}, !- Handle
  subsurface_3_low_iron_3mm,              !- Name
  FixedWindow,                            !- Sub Surface Type
  {ba69343e-3fb2-4389-b77d-1239cdd35668}, !- Construction Name
  {80454771-240f-482f-a683-308b1d236c5f}, !- Surface Name
  ,                                       !- Outside Boundary Condition Object
  ,                                       !- View Factor to Ground
  ,                                       !- Frame and Divider Name
  ,                                       !- Multiplier
  ,                                       !- Number of Vertices
  -26.6600467236436, 0.722166116859462, 6.00745335096869, !- X,Y,Z Vertex 1 {m}
  -27.9578097382789, 2.51344773260955, 3.25810504179586, !- X,Y,Z Vertex 2 {m}
  -24.1281160937859, -21.0045337519979, 2.3730961281355; !- X,Y,Z Vertex 3 {m}

OS:Surface,
  {5ea2b008-5693-48f2-9a52-90af1a987661}, !- Handle
  surface_4_generic_window_frame,         !- Name
  Wall,                                   !- Surface Type
  {627d7994-7892-4291-ae4b-1e5418866f9a}, !- Construction Name
  {2b7fc8e3-f7ff-4806-b350-eeee7f2a502b}, !- Space Name
  Outdoors,                               !- Outside Boundary Condition
  ,                                       !- Outside Boundary Condition Object
  SunExposed,                             !- Sun Exposure
  WindExposed,                            !- Wind Exposure
  ,                                       !- View Factor to Ground
  ,                                       !- Number of Vertices
  20.2764377332039, -25.3569793708396, 0, !- X,Y,Z Vertex 1 {m}
  -1.85357882248861, -23.2679316877199, 2.32817072041866, !- X,Y,Z Vertex 2 {m}
  -1.90138511248461, -23.1789252387093, 0; !- X,Y,Z Vertex 3 {m}

OS:SubSurface,
  {f23f815a-989b-4ed3-af42-d9ca768a6c11}, !- Handle
  subsurface_4_low_iron_3mm,              !- Name
  FixedWindow,                            !- Sub Surface Type
  {ba69343e-3fb2-4389-b77d-1239cdd35668}, !- Construction Name
  {5ea2b008-5693-48f2-9a52-90af1a987661}, !- Surface Name
  ,                                       !- Outside Boundary Condition Object
  ,                                       !- View Factor to Ground
  ,                                       !- Frame and Divider Name
  ,                                       !- Multiplier
  ,                                       !- Number of Vertices
  20.2664973744668, -25.3560220566626, 0.000522319582147445, !- X,Y,Z Vertex 1 {m}
  -1.84383219200421, -23.2688144645175, 2.32611550769824, !- X,Y,Z Vertex 2 {m}
  -1.89149031538234, -23.179934528675, 0.00103649605405273; !- X,Y,Z Vertex 3 {m}

OS:Surface,
  {6fcd04c2-bbb9-4feb-b197-5a4467aa59f8}, !- Handle
  surface_5_generic_window_frame,         !- Name
  Wall,                                   !- Surface Type
  {627d7994-7892-4291-ae4b-1e5418866f9a}, !- Construction Name
  {2b7fc8e3-f7ff-4806-b350-eeee7f2a502b}, !- Space Name
  Outdoors,                               !- Outside Boundary Condition
  ,                                       !- Outside Boundary Condition Object
  SunExposed,                             !- Sun Exposure
  WindExposed,                            !- Wind Exposure
  ,                                       !- View Factor to Ground
  ,                                       !- Number of Vertices
  -1.85357882248861, -23.2679316877199, 2.32817072041866, !- X,Y,Z Vertex 1 {m}
  -24.1341017613808, -21.1285778499501, 4.65911938477286, !- X,Y,Z Vertex 2 {m}
  -24.1267305339607, -21.0143882500011, 2.37211170288397; !- X,Y,Z Vertex 3 {m}

OS:SubSurface,
  {8bcb3912-27ba-415d-b9d7-4ca779633cda}, !- Handle
  subsurface_5_low_iron_3mm,              !- Name
  FixedWindow,                            !- Sub Surface Type
  {ba69343e-3fb2-4389-b77d-1239cdd35668}, !- Construction Name
  {6fcd04c2-bbb9-4feb-b197-5a4467aa59f8}, !- Surface Name
  ,                                       !- Outside Boundary Condition Object
  ,                                       !- View Factor to Ground
  ,                                       !- Frame and Divider Name
  ,                                       !- Multiplier
  ,                                       !- Number of Vertices
  -1.86351659391952, -23.2669518446568, 2.32870044351488, !- X,Y,Z Vertex 1 {m}
  -24.124348268936, -21.1294640899846, 4.65709850285385, !- X,Y,Z Vertex 2 {m}
  -24.1168361215685, -21.0154404173449, 2.3731084713091; !- X,Y,Z Vertex 3 {m}

OS:Surface,
  {810cdffe-4a6d-47bc-b031-b0a385fe1706}, !- Handle
  surface_6_generic_window_frame,         !- Name
  Wall,                                   !- Surface Type
  {627d7994-7892-4291-ae4b-1e5418866f9a}, !- Construction Name
  {2b7fc8e3-f7ff-4806-b350-eeee7f2a502b}, !- Space Name
  Outdoors,                               !- Outside Boundary Condition
  ,                                       !- Outside Boundary Condition Object
  SunExposed,                             !- Sun Exposure
  WindExposed,                            !- Wind Exposure
  ,                                       !- View Factor to Ground
  ,                                       !- Number of Vertices
  -1.90138511248461, -23.1789252387093, 0, !- X,Y,Z Vertex 1 {m}
  -24.1267305339607, -21.0143882500011, 2.37211170288397, !- X,Y,Z Vertex 2 {m}
  -24.119589647466, -21.0302933454697, 0; !- X,Y,Z Vertex 3 {m}

OS:SubSurface,
  {d778a075-8142-4957-84a3-49504fde243a}, !- Handle
  subsurface_6_low_iron_3mm,              !- Name
  FixedWindow,                            !- Sub Surface Type
  {ba69343e-3fb2-4389-b77d-1239cdd35668}, !- Construction Name
  {810cdffe-4a6d-47bc-b031-b0a385fe1706}, !- Surface Name
  ,                                       !- Outside Boundary Condition Object
  ,                                       !- View Factor to Ground
  ,                                       !- Frame and Divider Name
  ,                                       !- Multiplier
  ,                                       !- Number of Vertices
  -1.9113243355677, -23.1779606544725, 0.000530491993013372, !- X,Y,Z Vertex 1 {m}
  -24.1169953993497, -21.0153430193825, 2.37003430799256, !- X,Y,Z Vertex 2 {m}
  -24.1096912088862, -21.031243802663, 0.00105713991761268; !- X,Y,Z Vertex 3 {m}

OS:Surface,
  {77596830-d8fc-4b2b-bf21-487de6ed965f}, !- Handle
  surface_7_generic_window_frame,         !- Name
  Wall,                                   !- Surface Type
  {627d7994-7892-4291-ae4b-1e5418866f9a}, !- Construction Name
  {2b7fc8e3-f7ff-4806-b350-eeee7f2a502b}, !- Space Name
  Outdoors,                               !- Outside Boundary Condition
  ,                                       !- Outside Boundary Condition Object
  SunExposed,                             !- Sun Exposure
  WindExposed,                            !- Wind Exposure
  ,                                       !- View Factor to Ground
  ,                                       !- Number of Vertices
  -1.85357882248861, -23.2679316877199, 2.32817072041866, !- X,Y,Z Vertex 1 {m}
  -24.1267305339607, -21.0143882500011, 2.37211170288397, !- X,Y,Z Vertex 2 {m}
  -1.90138511248461, -23.1789252387093, 0; !- X,Y,Z Vertex 3 {m}

OS:SubSurface,
  {572db7e5-f3b0-40a0-a42c-b8d451327314}, !- Handle
  subsurface_7_low_iron_3mm,              !- Name
  FixedWindow,                            !- Sub Surface Type
  {ba69343e-3fb2-4389-b77d-1239cdd35668}, !- Construction Name
  {77596830-d8fc-4b2b-bf21-487de6ed965f}, !- Surface Name
  ,                                       !- Outside Boundary Condition Object
  ,                                       !- View Factor to Ground
  ,                                       !- Frame and Divider Name
  ,                                       !- Multiplier
  ,                                       !- Number of Vertices
  -1.86347308955479, -23.2668932997531, 2.32715818417061, !- X,Y,Z Vertex 1 {m}
  -24.1167939539302, -21.0153748138755, 2.37157219475645, !- X,Y,Z Vertex 2 {m}
  -1.91112707218247, -23.1780135174065, 0.00206469985984156; !- X,Y,Z Vertex 3 {m}

OS:Surface,
  {dc523023-ca49-460f-8262-370b752764e2}, !- Handle
  surface_8_generic_window_frame,         !- Name
  Wall,                                   !- Surface Type
  {627d7994-7892-4291-ae4b-1e5418866f9a}, !- Construction Name
  {2b7fc8e3-f7ff-4806-b350-eeee7f2a502b}, !- Space Name
  Outdoors,                               !- Outside Boundary Condition
  ,                                       !- Outside Boundary Condition Object
  SunExposed,                             !- Sun Exposure
  WindExposed,                            !- Wind Exposure
  ,                                       !- View Factor to Ground
  ,                                       !- Number of Vertices
  -24.119589647466, -21.0302933454697, 0, !- X,Y,Z Vertex 1 {m}
  -27.9597904252993, 2.52322307093809, 3.25738418155282, !- X,Y,Z Vertex 2 {m}
  -27.5404770534961, 1.26528638010301, 0; !- X,Y,Z Vertex 3 {m}

OS:SubSurface,
  {fe735bd0-fd0b-40a2-af4c-01862f2038ae}, !- Handle
  subsurface_8_clear_6mm,                 !- Name
  FixedWindow,                            !- Sub Surface Type
  {c82aab3e-c358-40dd-8637-b35163776973}, !- Construction Name
  {dc523023-ca49-460f-8262-370b752764e2}, !- Surface Name
  ,                                       !- Outside Boundary Condition Object
  ,                                       !- View Factor to Ground
  ,                                       !- Frame and Divider Name
  ,                                       !- Multiplier
  ,                                       !- Number of Vertices
  -24.1211500091145, -21.0204406664463, 0.000699991133901776, !- X,Y,Z Vertex 1 {m}
  -27.9581523854997, 2.51368157248371, 3.25487886064321, !- X,Y,Z Vertex 2 {m}
  -27.5390809006985, 1.25550092625665, 0.00151514038506195; !- X,Y,Z Vertex 3 {m}

OS:Surface,
  {2149921e-8fc0-42a5-aa6a-b5154d33fa49}, !- Handle
  surface_9_generic_window_frame,         !- Name
  Wall,                                   !- Surface Type
  {627d7994-7892-4291-ae4b-1e5418866f9a}, !- Construction Name
  {2b7fc8e3-f7ff-4806-b350-eeee7f2a502b}, !- Space Name
  Outdoors,                               !- Outside Boundary Condition
  ,                                       !- Outside Boundary Condition Object
  SunExposed,                             !- Sun Exposure
  WindExposed,                            !- Wind Exposure
  ,                                       !- View Factor to Ground
  ,                                       !- Number of Vertices
  -27.9597904252993, 2.52322307093809, 3.25738418155282, !- X,Y,Z Vertex 1 {m}
  -29.2151270260902, 21.7626296269101, 6.8737107243832, !- X,Y,Z Vertex 2 {m}
  -30.0771036574059, 23.110014686409, 3.73941275680011; !- X,Y,Z Vertex 3 {m}

OS:SubSurface,
  {e50b3aa2-cb6c-4c12-b59c-b6ab0ef608bc}, !- Handle
  subsurface_9_clear_6mm,                 !- Name
  FixedWindow,                            !- Sub Surface Type
  {c82aab3e-c358-40dd-8637-b35163776973}, !- Construction Name
  {2149921e-8fc0-42a5-aa6a-b5154d33fa49}, !- Surface Name
  ,                                       !- Outside Boundary Condition Object
  ,                                       !- View Factor to Ground
  ,                                       !- Frame and Divider Name
  ,                                       !- Multiplier
  ,                                       !- Number of Vertices
  -27.9606298456362, 2.53313543134989, 3.25840422300521, !- X,Y,Z Vertex 1 {m}
  -29.2149213714208, 21.7532754016438, 6.87018139359342, !- X,Y,Z Vertex 2 {m}
  -30.0757672885449, 23.1001760496718, 3.74060243970762; !- X,Y,Z Vertex 3 {m}

OS:Surface,
  {0ea953f6-42af-43c0-8a91-24a318f8726a}, !- Handle
  surface_10_generic_window_frame,        !- Name
  Wall,                                   !- Surface Type
  {627d7994-7892-4291-ae4b-1e5418866f9a}, !- Construction Name
  {2b7fc8e3-f7ff-4806-b350-eeee7f2a502b}, !- Space Name
  Outdoors,                               !- Outside Boundary Condition
  ,                                       !- Outside Boundary Condition Object
  SunExposed,                             !- Sun Exposure
  WindExposed,                            !- Wind Exposure
  ,                                       !- View Factor to Ground
  ,                                       !- Number of Vertices
  -27.5404770534961, 1.26528638010301, 0, !- X,Y,Z Vertex 1 {m}
  -30.0771036574059, 23.110014686409, 3.73941275680011, !- X,Y,Z Vertex 2 {m}
  -30.8750986703929, 23.4495637761054, 0; !- X,Y,Z Vertex 3 {m}

OS:SubSurface,
  {6760b7f1-2f0c-446d-9150-2461e697bdcc}, !- Handle
  subsurface_10_clear_6mm,                !- Name
  FixedWindow,                            !- Sub Surface Type
  {c82aab3e-c358-40dd-8637-b35163776973}, !- Construction Name
  {0ea953f6-42af-43c0-8a91-24a318f8726a}, !- Surface Name
  ,                                       !- Outside Boundary Condition Object
  ,                                       !- View Factor to Ground
  ,                                       !- Frame and Divider Name
  ,                                       !- Multiplier
  ,                                       !- Number of Vertices
  -27.5417941895024, 1.27516369861305, 0.000838887234681633, !- X,Y,Z Vertex 1 {m}
  -30.0763422620492, 23.1005969675051, 3.73613757012489, !- X,Y,Z Vertex 2 {m}
  -30.8733176091634, 23.4398565330467, 0.0016115995454979; !- X,Y,Z Vertex 3 {m}

OS:Surface,
  {e0bd1d62-4da4-4b9e-b9cf-e213d14cce46}, !- Handle
  surface_11_generic_window_frame,        !- Name
  Wall,                                   !- Surface Type
  {627d7994-7892-4291-ae4b-1e5418866f9a}, !- Construction Name
  {2b7fc8e3-f7ff-4806-b350-eeee7f2a502b}, !- Space Name
  Outdoors,                               !- Outside Boundary Condition
  ,                                       !- Outside Boundary Condition Object
  SunExposed,                             !- Sun Exposure
  WindExposed,                            !- Wind Exposure
  ,                                       !- View Factor to Ground
  ,                                       !- Number of Vertices
  -27.9597904252993, 2.52322307093809, 3.25738418155282, !- X,Y,Z Vertex 1 {m}
  -30.0771036574059, 23.110014686409, 3.73941275680011, !- X,Y,Z Vertex 2 {m}
  -27.5404770534961, 1.26528638010301, 0; !- X,Y,Z Vertex 3 {m}

OS:SubSurface,
  {efaa1002-1aac-4ee2-b43a-46e3cb7b751b}, !- Handle
  subsurface_11_clear_6mm,                !- Name
  FixedWindow,                            !- Sub Surface Type
  {c82aab3e-c358-40dd-8637-b35163776973}, !- Construction Name
  {e0bd1d62-4da4-4b9e-b9cf-e213d14cce46}, !- Surface Name
  ,                                       !- Outside Boundary Condition Object
  ,                                       !- View Factor to Ground
  ,                                       !- Frame and Divider Name
  ,                                       !- Multiplier
  ,                                       !- Number of Vertices
  -27.9606567174434, 2.53308434099353, 3.25596823988217, !- X,Y,Z Vertex 1 {m}
  -30.0760186766153, 23.1001225550848, 3.73842860511026, !- X,Y,Z Vertex 2 {m}
  -27.5416925268684, 1.27478612446953, 0.00287706125276116; !- X,Y,Z Vertex 3 {m}

OS:Surface,
  {b52cb9a3-08e7-4a42-8c79-5c3d11334866}, !- Handle
  surface_12_M16_300mm_heavyweight_concrete, !- Name
  Floor,                                  !- Surface Type
  {a296ea9b-3615-4245-bf01-f54abb9bdada}, !- Construction Name
  {2b7fc8e3-f7ff-4806-b350-eeee7f2a502b}, !- Space Name
  Ground,                                 !- Outside Boundary Condition
  ,                                       !- Outside Boundary Condition Object
  NoSun,                                  !- Sun Exposure
  NoWind,                                 !- Wind Exposure
  ,                                       !- View Factor to Ground
  ,                                       !- Number of Vertices
  -30.8750986703929, 23.4495637761054, 0, !- X,Y,Z Vertex 1 {m}
  -5.18383935176699, -0.975666588830928, 0, !- X,Y,Z Vertex 2 {m}
  -27.5404770534961, 1.26528638010301, 0; !- X,Y,Z Vertex 3 {m}

OS:Surface,
  {abaa5fe5-8af1-4849-b534-06fa706298f7}, !- Handle
  surface_13_M16_300mm_heavyweight_concrete, !- Name
  Floor,                                  !- Surface Type
  {a296ea9b-3615-4245-bf01-f54abb9bdada}, !- Construction Name
  {2b7fc8e3-f7ff-4806-b350-eeee7f2a502b}, !- Space Name
  Ground,                                 !- Outside Boundary Condition
  ,                                       !- Outside Boundary Condition Object
  NoSun,                                  !- Sun Exposure
  NoWind,                                 !- Wind Exposure
  ,                                       !- View Factor to Ground
  ,                                       !- Number of Vertices
  -5.18383935176699, -0.975666588830928, 0, !- X,Y,Z Vertex 1 {m}
  20.2764377332039, -25.3569793708396, 0, !- X,Y,Z Vertex 2 {m}
  -1.90138511248461, -23.1789252387093, 0; !- X,Y,Z Vertex 3 {m}

OS:Surface,
  {56c2bec8-f03c-4bcb-8e97-00990ab0de0f}, !- Handle
  surface_14_M16_300mm_heavyweight_concrete, !- Name
  Floor,                                  !- Surface Type
  {a296ea9b-3615-4245-bf01-f54abb9bdada}, !- Construction Name
  {2b7fc8e3-f7ff-4806-b350-eeee7f2a502b}, !- Space Name
  Ground,                                 !- Outside Boundary Condition
  ,                                       !- Outside Boundary Condition Object
  NoSun,                                  !- Sun Exposure
  NoWind,                                 !- Wind Exposure
  ,                                       !- View Factor to Ground
  ,                                       !- Number of Vertices
  -27.5404770534961, 1.26528638010301, 0, !- X,Y,Z Vertex 1 {m}
  -1.90138511248461, -23.1789252387093, 0, !- X,Y,Z Vertex 2 {m}
  -24.119589647466, -21.0302933454697, 0; !- X,Y,Z Vertex 3 {m}

OS:Surface,
  {2c125488-1886-4d89-bd68-ab56484f780f}, !- Handle
  surface_15_M16_300mm_heavyweight_concrete, !- Name
  Floor,                                  !- Surface Type
  {a296ea9b-3615-4245-bf01-f54abb9bdada}, !- Construction Name
  {2b7fc8e3-f7ff-4806-b350-eeee7f2a502b}, !- Space Name
  Ground,                                 !- Outside Boundary Condition