
OS:Version,
  {69f41d5b-597e-4921-9d04-600255945480}, !- Handle
  3.9.0;                                  !- Version Identifier

OS:Space,
  {a9b58481-240b-4531-96a8-470446a70fb9}, !- Handle
  Main Space,                             !- Name
  ,                                       !- Space Type Name
  ,                                       !- Default Construction Set Name
  ,                                       !- Default Schedule Set Name
  ,                                       !- Direction of Relative North {deg}
  ,                                       !- X Origin {m}
  ,                                       !- Y Origin {m}
  ,                                       !- Z Origin {m}
  ,                                       !- Building Story Name
  {1df6ac36-c319-4412-a2e9-810a5defbafe}; !- Thermal Zone Name

OS:Construction,
  {37153431-e724-43ef-b4fc-3cd345a37ddc}, !- Handle
  M08_200mm_lightweight_concrete_block_filled, !- Name
  ,                                       !- Surface Rendering Name
  {ab23d481-b7a5-4488-a97b-cfb6a61fba07}; !- Layer 1

OS:Material,
  {ab23d481-b7a5-4488-a97b-cfb6a61fba07}, !- Handle
  M08_200mm_lightweight_concrete_block_filled, !- Name
  MediumRough,                            !- Roughness
  0.2032,                                 !- Thickness {m}
  0.26,                                   !- Conductivity {W/m-K}
  464,                                    !- Density {kg/m3}
  880,                                    !- Specific Heat {J/kg-K}
  0.9,                                    !- Thermal Absorptance
  0.7,                                    !- Solar Absorptance
  0.7;                                    !- Visible Absorptance

OS:Construction,
  {a51a294e-a665-4e8a-8967-6f5ec0fd839f}, !- Handle
  generic_window_frame,                   !- Name
  ,                                       !- Surface Rendering Name
  {8437018b-736b-4749-a56b-bef6208d8aed}; !- Layer 1

OS:Material,
  {8437018b-736b-4749-a56b-bef6208d8aed}, !- Handle
  generic_window_frame,                   !- Name
  MediumSmooth,                           !- Roughness
  0.1,                                    !- Thickness {m}
  0.17,                                   !- Conductivity {W/m-K}
  700,                                    !- Density {kg/m3}
  1000,                                   !- Specific Heat {J/kg-K}
  0.9,                                    !- Thermal Absorptance
  0.7,                                    !- Solar Absorptance
  0.7;                                    !- Visible Absorptance

OS:Construction,
  {f8502004-8812-480f-9ef8-9f95218eca5f}, !- Handle
  clear_6mm,                              !- Name
  ,                                       !- Surface Rendering Name
  {069a09b8-f6d4-4042-8144-6b2f2e9e23bf}; !- Layer 1

OS:WindowMaterial:Glazing,
  {069a09b8-f6d4-4042-8144-6b2f2e9e23bf}, !- Handle
  clear_6mm,                              !- Name
  SpectralAverage,                        !- Optical Data Type
  ,                                       !- Window Glass Spectral Data Set Name
  0.006,                                  !- Thickness {m}
  0.775,                                  !- Solar Transmittance at Normal Incidence
  0.071,                                  !- Front Side Solar Reflectance at Normal Incidence
  0.071,                                  !- Back Side Solar Reflectance at Normal Incidence
  0.881,                                  !- Visible Transmittance at Normal Incidence
  0.08,                                   !- Front Side Visible Reflectance at Normal Incidence
  0.08,                                   !- Back Side Visible Reflectance at Normal Incidence
  0,                                      !- Infrared Transmittance at Normal Incidence
  0.84,                                   !- Front Side Infrared Hemispherical Emissivity
  0.84,                                   !- Back Side Infrared Hemispherical Emissivity
  0.9;                                    !- Conductivity {W/m-K}

OS:Construction,
  {8d5acbf5-ae71-433a-adaf-0ba51e3a2e5c}, !- Handle
  low_iron_3mm,                           !- Name
  ,                                       !- Surface Rendering Name
  {3a7dea53-3348-4b61-81f9-3d48cd99d93f}; !- Layer 1

OS:WindowMaterial:Glazing,
  {3a7dea53-3348-4b61-81f9-3d48cd99d93f}, !- Handle
  low_iron_3mm,                           !- Name
  SpectralAverage,                        !- Optical Data Type
  ,                                       !- Window Glass Spectral Data Set Name
  0.003,                                  !- Thickness {m}
  0.899,                                  !- Solar Transmittance at Normal Incidence
  0.079,                                  !- Front Side Solar Reflectance at Normal Incidence
  0.079,                                  !- Back Side Solar Reflectance at Normal Incidence
  0.913,                                  !- Visible Transmittance at Normal Incidence
  0.082,                                  !- Front Side Visible Reflectance at Normal Incidence
  0.082,                                  !- Back Side Visible Reflectance at Normal Incidence
  0,                                      !- Infrared Transmittance at Normal Incidence
  0.84,                                   !- Front Side Infrared Hemispherical Emissivity
  0.84,                                   !- Back Side Infrared Hemispherical Emissivity
  0.9;                                    !- Conductivity {W/m-K}

OS:Construction,
  {b38fa204-2df5-4998-bbd8-febc33872d73}, !- Handle
  M16_300mm_heavyweight_concrete,         !- Name
  ,                                       !- Surface Rendering Name
  {2afade67-3ddd-4b64-9257-cf0a77220371}; !- Layer 1

OS:Material,
  {2afade67-3ddd-4b64-9257-cf0a77220371}, !- Handle
  M16_300mm_heavyweight_concrete,         !- Name
  MediumRough,                            !- Roughness
  0.3048,                                 !- Thickness {m}
  1.95,                                   !- Conductivity {W/m-K}
  2240,                                   !- Density {kg/m3}
  900,                                    !- Specific Heat {J/kg-K}
  0.9,                                    !- Thermal Absorptance
  0.7,                                    !- Solar Absorptance
  0.7;                                    !- Visible Absorptance

OS:Construction,
  {c5fe3cf9-094a-4428-9067-dce46104ef07}, !- Handle
  I02_50_mm_insulation_board,             !- Name
  ,                                       !- Surface Rendering Name
  {3f904994-448b-4550-8ee0-3ad61f90edc8}; !- Layer 1

OS:Material,
  {3f904994-448b-4550-8ee0-3ad61f90edc8}, !- Handle
  I02_50_mm_insulation_board,             !- Name
  MediumRough,                            !- Roughness
  0.0508,                                 !- Thickness {m}
  0.03,                                   !- Conductivity {W/m-K}
  43,                                     !- Density {kg/m3}
  1210,                                   !- Specific Heat {J/kg-K}
  0.9,                                    !- Thermal Absorptance
  0.7,                                    !- Solar Absorptance
  0.7;                                    !- Visible Absorptance

OS:Surface,
  {6565986d-5155-4586-b750-a89c042805be}, !- Handle
  surface_0_I02_50_mm_insulation_board,   !- Name
  Wall,                                   !- Surface Type
  {c5fe3cf9-094a-4428-9067-dce46104ef07}, !- Construction Name
  {a9b58481-240b-4531-96a8-470446a70fb9}, !- Space Name
  Outdoors,                               !- Outside Boundary Condition
  ,                                       !- Outside Boundary Condition Object
  SunExposed,                             !- Sun Exposure
  WindExposed,                            !- Wind Exposure
  ,                                       !- View Factor to Ground
  ,                                       !- Number of Vertices
  -19.3865833118115, -21.5266835065418, 3.97997922422111, !- X,Y,Z Vertex 1 {m}
  -20.1646800350841, -4.40166712041788, 4.96851689941012, !- X,Y,Z Vertex 2 {m}
  -23.6739635879082, -24.8583927135798, 1.69637910610598; !- X,Y,Z Vertex 3 {m}

OS:Surface,
  {5bdad001-4628-4730-96e8-cbcd156b07dd}, !- Handle
  surface_1_generic_window_frame,         !- Name
  Wall,                                   !- Surface Type
  {a51a294e-a665-4e8a-8967-6f5ec0fd839f}, !- Construction Name
  {a9b58481-240b-4531-96a8-470446a70fb9}, !- Space Name
  Outdoors,                               !- Outside Boundary Condition
  ,                                       !- Outside Boundary Condition Object
  SunExposed,                             !- Sun Exposure
  WindExposed,                            !- Wind Exposure
  ,                                       !- View Factor to Ground
  ,                                       !- Number of Vertices
  -20.1646800350841, -4.40166712041788, 4.96851689941012, !- X,Y,Z Vertex 1 {m}
  -20.9056410096793, 13.9255336817311, 7.02026275211332, !- X,Y,Z Vertex 2 {m}
  -23.7645259955289, -4.78835231370634, 3.03803689895588; !- X,Y,Z Vertex 3 {m}

OS:SubSurface,
  {89f2e8b3-27bb-405f-8850-11ce293e4e00}, !- Handle
  subsurface_1_clear_6mm,                 !- Name
  FixedWindow,                            !- Sub Surface Type
  {f8502004-8812-480f-9ef8-9f95218eca5f}, !- Construction Name
  {5bdad001-4628-4730-96e8-cbcd156b07dd}, !- Surface Name
  ,                                       !- Outside Boundary Condition Object
  ,                                       !- View Factor to Ground
  ,                                       !- Frame and Divider Name
  ,                                       !- Multiplier
  ,                                       !- Number of Vertices
  -20.1670316815479, -4.3919477869571, 4.96858259558526, !- X,Y,Z Vertex 1 {m}
  -20.9062044514596, 13.9156794585488, 7.01865750483237, !- X,Y,Z Vertex 2 {m}
  -23.7614521761827, -4.77926202867501, 3.04085085572108; !- X,Y,Z Vertex 3 {m}

OS:Surface,
  {61a1afef-d9eb-47ac-be84-442599816960}, !- Handle
  surface_2_generic_window_frame,         !- Name
  Wall,                                   !- Surface Type
  {a51a294e-a665-4e8a-8967-6f5ec0fd839f}, !- Construction Name
  {a9b58481-240b-4531-96a8-470446a70fb9}, !- Space Name
  Outdoors,                               !- Outside Boundary Condition
  ,                                       !- Outside Boundary Condition Object
  SunExposed,                             !- Sun Exposure
  WindExposed,                            !- Wind Exposure
  ,                                       !- View Factor to Ground
  ,                                       !- Number of Vertices
  -23.6739635879082, -24.8583927135798, 1.69637910610598, !- X,Y,Z Vertex 1 {m}
  -23.7645259955289, -4.78835231370634, 3.03803689895588, !- X,Y,Z Vertex 2 {m}
  -27.1326987029567, -23.1882545366729, 0; !- X,Y,Z Vertex 3 {m}

OS:SubSurface,
  {d0bb048e-8e5e-45f7-aeb0-d49e0e41374a}, !- Handle
  subsurface_2_clear_6mm,                 !- Name
  FixedWindow,                            !- Sub Surface Type
  {f8502004-8812-480f-9ef8-9f95218eca5f}, !- Construction Name
  {61a1afef-d9eb-47ac-be84-442599816960}, !- Surface Name
  ,                                       !- Outside Boundary Condition Object
  ,                                       !- View Factor to Ground
  ,                                       !- Frame and Divider Name
  ,                                       !- Multiplier
  ,                                       !- Number of Vertices
  -23.6755746452357, -24.8485246555284, 1.69621809498553, !- X,Y,Z Vertex 1 {m}
  -23.7653695028195, -4.79825272104647, 3.03690976544546, !- X,Y,Z Vertex 2 {m}
  -27.129043852688, -23.1792980977976, 0.00253461480046745; !- X,Y,Z Vertex 3 {m}

OS:Surface,
  {1c3d5abf-f415-4995-b3ca-f609d19e0b6a}, !- Handle
  surface_3_I02_50_mm_insulation_board,   !- Name
  Wall,                                   !- Surface Type
  {c5fe3cf9-094a-4428-9067-dce46104ef07}, !- Construction Name
  {a9b58481-240b-4531-96a8-470446a70fb9}, !- Space Name
  Outdoors,                               !- Outside Boundary Condition
  ,                                       !- Outside Boundary Condition Object
  SunExposed,                             !- Sun Exposure
  WindExposed,                            !- Wind Exposure
  ,                                       !- View Factor to Ground
  ,                                       !- Number of Vertices
  -20.1646800350841, -4.40166712041788, 4.96851689941012, !- X,Y,Z Vertex 1 {m}
  -23.7645259955289, -4.78835231370634, 3.03803689895588, !- X,Y,Z Vertex 2 {m}
  -23.6739635879082, -24.8583927135798, 1.69637910610598; !- X,Y,Z Vertex 3 {m}

OS:Surface,
  {920c24f4-64c7-46bc-a295-ef20e2926a8b}, !- Handle
  surface_4_generic_window_frame,         !- Name
  Wall,                                   !- Surface Type
  {a51a294e-a665-4e8a-8967-6f5ec0fd839f}, !- Construction Name
  {a9b58481-240b-4531-96a8-470446a70fb9}, !- Space Name
  Outdoors,                               !- Outside Boundary Condition
  ,                                       !- Outside Boundary Condition Object
  SunExposed,                             !- Sun Exposure
  WindExposed,                            !- Wind Exposure
  ,                                       !- View Factor to Ground
  ,                                       !- Number of Vertices
  21.6364527418651, -20.5389704307707, 0, !- X,Y,Z Vertex 1 {m}
  -0.0477832380741889, -22.3119163486151, 2.14168991800869, !- X,Y,Z Vertex 2 {m}
  -2.98517360352234, -21.5679769668035, 0; !- X,Y,Z Vertex 3 {m}

OS:SubSurface,
  {b17af23f-e2c7-45b4-9aaf-cbd4552aff91}, !- Handle
  subsurface_4_clear_6mm,                 !- Name
  FixedWindow,                            !- Sub Surface Type
  {f8502004-8812-480f-9ef8-9f95218eca5f}, !- Construction Name
  {920c24f4-64c7-46bc-a295-ef20e2926a8b}, !- Surface Name
  ,                                       !- Outside Boundary Condition Object
  ,                                       !- View Factor to Ground
  ,                                       !- Frame and Divider Name
  ,                                       !- Multiplier
  ,                                       !- Number of Vertices
  21.6264816191479, -20.539573780117, 0.000461173854073683, !- X,Y,Z Vertex 1 {m}
  -0.0381169136618037, -22.31061858203, 2.13948130436094, !- X,Y,Z Vertex 2 {m}
  -2.97520419400078, -21.5678738444304, 0.000774751294098946; !- X,Y,Z Vertex 3 {m}

OS:Surface,
  {12aa7bc6-5df0-4a3e-a35d-1a99dbbff8c7}, !- Handle
  surface_5_generic_window_frame,         !- Name
  Wall,                                   !- Surface Type
  {a51a294e-a665-4e8a-8967-6f5ec0fd839f}, !- Construction Name
  {a9b58481-240b-4531-96a8-470446a70fb9}, !- Space Name
  Outdoors,                               !- Outside Boundary Condition
  ,                                       !- Outside Boundary Condition Object
  SunExposed,                             !- Sun Exposure
  WindExposed,                            !- Wind Exposure
  ,                                       !- View Factor to Ground
  ,                                       !- Number of Vertices
  -0.0477832380741889, -22.3119163486151, 2.14168991800869, !- X,Y,Z Vertex 1 {m}
  -19.3865833118115, -21.5266835065418, 3.97997922422111, !- X,Y,Z Vertex 2 {m}
  -23.6739635879082, -24.8583927135798, 1.69637910610598; !- X,Y,Z Vertex 3 {m}

OS:SubSurface,
  {3f9c332c-46fc-4a82-a003-4045cb46ae35}, !- Handle
  subsurface_5_clear_6mm,                 !- Name
  FixedWindow,                            !- Sub Surface Type
  {f8502004-8812-480f-9ef8-9f95218eca5f}, !- Construction Name
  {12aa7bc6-5df0-4a3e-a35d-1a99dbbff8c7}, !- Surface Name
  ,                                       !- Outside Boundary Condition Object
  ,                                       !- View Factor to Ground
  ,                                       !- Frame and Divider Name
  ,                                       !- Multiplier
  ,                                       !- Number of Vertices
  -0.0577696083618968, -22.3123257152624, 2.14201368864492, !- X,Y,Z Vertex 1 {m}
  -19.3772575012188, -21.5292343504015, 3.97742531498384, !- X,Y,Z Vertex 2 {m}
  -23.6642226780618, -24.8563414211459, 1.69733140580376; !- X,Y,Z Vertex 3 {m}

OS:Surface,
  {439d5ff3-0052-4688-a6e0-bd72053b9890}, !- Handle
  surface_6_I02_50_mm_insulation_board,   !- Name
  Wall,                                   !- Surface Type
  {c5fe3cf9-094a-4428-9067-dce46104ef07}, !- Construction Name
  {a9b58481-240b-4531-96a8-470446a70fb9}, !- Space Name
  Outdoors,                               !- Outside Boundary Condition
  ,                                       !- Outside Boundary Condition Object
  SunExposed,                             !- Sun Exposure
  WindExposed,                            !- Wind Exposure
  ,                                       !- View Factor to Ground
  ,                                       !- Number of Vertices
  -2.98517360352234, -21.5679769668035, 0, !- X,Y,Z Vertex 1 {m}
  -23.6739635879082, -24.8583927135798, 1.69637910610598, !- X,Y,Z Vertex 2 {m}
  -27.1326987029567, -23.1882545366729, 0; !- X,Y,Z Vertex 3 {m}

OS:Surface,
  {813d6e86-b6d1-4f81-a621-cb6c2a4099da}, !- Handle
  surface_7_generic_window_frame,         !- Name
  Wall,                                   !- Surface Type
  {a51a294e-a665-4e8a-8967-6f5ec0fd839f}, !- Construction Name
  {a9b58481-240b-4531-96a8-470446a70fb9}, !- Space Name
  Outdoors,                               !- Outside Boundary Condition
  ,                                       !- Outside Boundary Condition Object
  SunExposed,                             !- Sun Exposure
  WindExposed,                            !- Wind Exposure
  ,                                       !- View Factor to Ground
  ,                                       !- Number of Vertices
  -0.0477832380741889, -22.3119163486151, 2.14168991800869, !- X,Y,Z Vertex 1 {m}
  -23.6739635879082, -24.8583927135798, 1.69637910610598, !- X,Y,Z Vertex 2 {m}
  -2.98517360352234, -21.5679769668035, 0; !- X,Y,Z Vertex 3 {m}

OS:SubSurface,
  {210b0d03-ffc1-477b-95d1-70cd3d42a585}, !- Handle
  subsurface_7_clear_6mm,                 !- Name
  FixedWindow,                            !- Sub Surface Type
  {f8502004-8812-480f-9ef8-9f95218eca5f}, !- Construction Name
  {813d6e86-b6d1-4f81-a621-cb6c2a4099da}, !- Surface Name
  ,                                       !- Outside Boundary Condition Object
  ,                                       !- View Factor to Ground
  ,                                       !- Frame and Divider Name
  ,                                       !- Multiplier
  ,                                       !- Number of Vertices
  -0.0577135275262623, -22.3125901930385, 2.14072281662251, !- X,Y,Z Vertex 1 {m}
  -23.6640530991826, -24.8570873656798, 1.69609932033311, !- X,Y,Z Vertex 2 {m}
  -2.99471517462804, -21.5701454767323, 0.0020630040046593; !- X,Y,Z Vertex 3 {m}

OS:Surface,
  {af98634e-9f55-4000-8ebf-3513af20182c}, !- Handle
  surface_8_M08_200mm_lightweight_concrete_block_filled, !- Name
  Wall,                                   !- Surface Type
  {37153431-e724-43ef-b4fc-3cd345a37ddc}, !- Construction Name
  {a9b58481-240b-4531-96a8-470446a70fb9}, !- Space Name
  Outdoors,                               !- Outside Boundary Condition
  ,                                       !- Outside Boundary Condition Object
  SunExposed,                             !- Sun Exposure
  WindExposed,                            !- Wind Exposure
  ,                                       !- View Factor to Ground
  ,                                       !- Number of Vertices
  -27.1326987029567, -23.1882545366729, 0, !- X,Y,Z Vertex 1 {m}
  -23.7645259955289, -4.78835231370634, 3.03803689895588, !- X,Y,Z Vertex 2 {m}
  -24.7102993649986, 2.70537468662428, 0; !- X,Y,Z Vertex 3 {m}

OS:Surface,
  {73e6a466-cdc6-40fe-b27a-034eacf54db7}, !- Handle
  surface_9_M08_200mm_lightweight_concrete_block_filled, !- Name
  Wall,                                   !- Surface Type
  {37153431-e724-43ef-b4fc-3cd345a37ddc}, !- Construction Name
  {a9b58481-240b-4531-96a8-470446a70fb9}, !- Space Name
  Outdoors,                               !- Outside Boundary Condition
  ,                                       !- Outside Boundary Condition Object
  SunExposed,                             !- Sun Exposure
  WindExposed,                            !- Wind Exposure
  ,                                       !- View Factor to Ground
  ,                                       !- Number of Vertices
  -23.7645259955289, -4.78835231370634, 3.03803689895588, !- X,Y,Z Vertex 1 {m}
  -20.9056410096793, 13.9255336817311, 7.02026275211332, !- X,Y,Z Vertex 2 {m}
  -21.9642591007182, 21.8641482389832, 3.11812366401345; !- X,Y,Z Vertex 3 {m}

OS:Surface,
  {2f9b499e-4fcb-4056-a58b-c3848e903475}, !- Handle
  surface_10_M08_200mm_lightweight_concrete_block_filled, !- Name
  Wall,                                   !- Surface Type
  {37153431-e724-43ef-b4fc-3cd345a37ddc}, !- Construction Name
  {a9b58481-240b-4531-96a8-470446a70fb9}, !- Space Name
  Outdoors,                               !- Outside Boundary Condition
  ,                                       !- Outside Boundary Condition Object
  SunExposed,                             !- Sun Exposure
  WindExposed,                            !- Wind Exposure
  ,                                       !- View Factor to Ground
  ,                                       !- Number of Vertices
  -24.7102993649986, 2.70537468662428, 0, !- X,Y,Z Vertex 1 {m}
  -21.9642591007182, 21.8641482389832, 3.11812366401345, !- X,Y,Z Vertex 2 {m}
  -22.1554900299311, 28.9418048760443, 0; !- X,Y,Z Vertex 3 {m}

OS:Surface,
  {ef1d1154-31df-40da-8a16-29adb5c6ae89}, !- Handle
  surface_11_M08_200mm_lightweight_concrete_block_filled, !- Name
  Wall,                                   !- Surface Type
  {37153431-e724-43ef-b4fc-3cd345a37ddc}, !- Construction Name
  {a9b58481-240b-4531-96a8-470446a70fb9}, !- Space Name
  Outdoors,                               !- Outside Boundary Condition
  ,                                       !- Outside Boundary Condition Object
  SunExposed,                             !- Sun Exposure
  WindExposed,                            !- Wind Exposure
  ,                                       !- View Factor to Ground
  ,                                       !- Number of Vertices
  -23.7645259955289, -4.78835231370634, 3.03803689895588, !- X,Y,Z Vertex 1 {m}
  -21.9642591007182, 21.8641482389832, 3.11812366401345, !- X,Y,Z Vertex 2 {m}
  -24.7102993649986, 2.70537468662428, 0; !- X,Y,Z Vertex 3 {m}

OS:Surface,
  {5d6e061d-32f3-4418-b4cd-8f8bcf8f57a3}, !- Handle
  surface_12_M16_300mm_heavyweight_concrete, !- Name
  Floor,                                  !- Surface Type
  {b38fa204-2df5-4998-bbd8-febc33872d73}, !- Construction Name
  {a9b58481-240b-4531-96a8-470446a70fb9}, !- Space Name
  Ground,                                 !- Outside Boundary Condition
  ,                                       !- Outside Boundary Condition Object
  NoSun,                                  !- Sun Exposure
  NoWind,                                 !- Wind Exposure
  ,                                       !- View Factor to Ground
  ,                                       !- Number of Vertices
  -22.1554900299311, 28.9418048760443, 0, !- X,Y,Z Vertex 1 {m}
  -0.907532470032512, 3.95627301585566, 0, !- X,Y,Z Vertex 2 {m}
  -24.7102993649986, 2.70537468662428, 0; !- X,Y,Z Vertex 3 {m}

OS:Surface,
  {98270cc6-92c9-4df8-bc5b-1980ef6361b2}, !- Handle
  surface_13_M16_300mm_heavyweight_concrete, !- Name
  Floor,                                  !- Surface Type
  {b38fa204-2df5-4998-bbd8-febc33872d73}, !- Construction Name
  {a9b58481-240b-4531-96a8-470446a70fb9}, !- Space Name
  Ground,                                 !- Outside Boundary Condition
  ,                                       !- Outside Boundary Condition Object
  NoSun,                                  !- Sun Exposure
  NoWind,                                 !- Wind Exposure
  ,                                       !- View Factor to Ground
  ,                                       !- Number of Vertices
  -0.907532470032512, 3.95627301585566, 0, !- X,Y,Z Vertex 1 {m}
  21.6364527418651, -20.5389704307707, 0, !- X,Y,Z Vertex 2 {m}
  -2.98517360352234, -21.5679769668035, 0; !- X,Y,Z Vertex 3 {m}

OS:Surface,
  {c0481dbb-08e5-4bc5-8e31-3b6a9181d705}, !- Handle
  surface_14_M16_300mm_heavyweight_concrete, !- Name
  Floor,                                  !- Surface Type
  {b38fa204-2df5-4998-bbd8-febc33872d73}, !- Construction Name
  {a9b58481-240b-4531-96a8-470446a70fb9}, !- Space Name
  Ground,                                 !- Outside Boundary Condition
  ,                                       !- Outside Boundary Condition Object
  NoSun,                                  !- Sun Exposure
  NoWind,                                 !- Wind Exposure
  ,                                       !- View Factor to Ground
  ,                                       !- Number of Vertices
  -24.7102993649986, 2.70537468662428, 0, !- X,Y,Z Vertex 1 {m}
  -2.98517360352234, -21.5679769668035, 0, !- X,Y,Z Vertex 2 {m}
  -27.1326987029567, -23.1882545366729, 0; !- X,Y,Z Vertex 3 {m}

OS:Surface,
  {0568cb1a-14c4-4e23-ae79-0e583392db43}, !- Handle
  surface_15_M16_300mm_heavyweight_concrete, !- Name
  Floor,                                  !- Surface Type
  {b38fa204-2df5-4998-bbd8-febc33872d73}, !- Construction Name
  {a9b58481-240b-4531-96a8-470446a70fb9}, !- Space Name
  Ground,                                 !- Outside Boundary Condition
  ,                                       !- Outside Boundary Condition Object
  NoSun,                                  !- Sun Exposure
  NoWind,                                 !- Wind Exposure
  ,                                       !- View Factor to Ground
  ,                                       !- Number of Vertices
  -0.907532470032512, 3.95627301585566, 0, !- X,Y,Z Vertex 1 {m}
  -2.98517360352234, -21.5679769668035, 0, !- X,Y,Z Vertex 2 {m}
  -24.7102993649986, 2.70537468662428, 0; !- X,Y,Z Vertex 3 {m}

OS:Surface,
  {bb5a0b3f-e187-4c92-bd1f-40c25f222f5f}, !- Handle
  surface_16_generic_window_frame,        !- Name
  Wall,                                   !- Surface Type
  {a51a294e-a665-4e8a-8967-6f5ec0fd839f}, !- Construction Name
  {a9b58481-240b-4531-96a8-470446a70fb9}, !- Space Name
  Outdoors,                               !- Outside Boundary Condition
  ,                                       !- Outside Boundary Condition Object
  SunExposed,                             !- Sun Exposure
  WindExposed,                            !- Wind Exposure
  ,                                       !- View Factor to Ground
  ,                                       !- Number of Vertices
  -19.3865833118115, -21.5266835065418, 3.97997922422111, !- X,Y,Z Vertex 1 {m}
  -0.707503375532592, 0.114294197837755, 5.11437752609444, !- X,Y,Z Vertex 2 {m}
  -20.1646800350841, -4.40166712041788, 4.96851689941012; !- X,Y,Z Vertex 3 {m}

OS:SubSurface,
  {0edd27c7-f4a4-449a-80a1-aa8d2c4ad772}, !- Handle
  subsurface_16_low_iron_3mm,             !- Name
  FixedWindow,                            !- Sub Surface Type
  {8d5acbf5-ae71-433a-adaf-0ba51e3a2e5c}, !- Construction Name
  {bb5a0b3f-e187-4c92-bd1f-40c25f222f5f}, !- Surface Name
  ,                                       !- Outside Boundary Condition Object
  ,                                       !- View Factor to Ground
  ,                                       !- Frame and Divider Name
  ,                                       !- Multiplier
  ,                                       !- Number of Vertices
  -19.3823961670918, -21.5176159136878, 3.98047579136834, !- X,Y,Z Vertex 1 {m}
  -0.715746863803073, 0.108640144732596, 5.11410078683362, !- X,Y,Z Vertex 2 {m}
  -20.1561981943813, -4.40695234659071, 4.96816368191936; !- X,Y,Z Vertex 3 {m}

OS:Surface,
  {24d7c42a-a615-478f-b737-a283dd141304}, !- Handle
  surface_17_generic_window_frame,        !- Name
  Wall,                                   !- Surface Type
  {a51a294e-a665-4e8a-8967-6f5ec0fd839f}, !- Construction Name
  {a9b58481-240b-4531-96a8-470446a70fb9}, !- Space Name
  Outdoors,                               !- Outside Boundary Condition
  ,                                       !- Outside Boundary Condition Object
  SunExposed,                             !- Sun Exposure
  WindExposed,                            !- Wind Exposure
  ,                                       !- View Factor to Ground
  ,                                       !- Number of Vertices
  -0.707503375532592, 0.114294197837755, 5.11437752609444, !- X,Y,Z Vertex 1 {m}
  16.051792348525, 21.7585319357587, 5.58458169880567, !- X,Y,Z Vertex 2 {m}
  -3.04965447740623, 18.6810565405229, 5.98206443821811; !- X,Y,Z Vertex 3 {m}

OS:SubSurface,
  {27d27b25-892e-4341-972c-e4fee5ca65f5}, !- Handle
  subsurface_17_low_iron_3mm,             !- Name
  FixedWindow,                            !- Sub Surface Type
  {8d5acbf5-ae71-433a-adaf-0ba51e3a2e5c}, !- Construction Name
  {24d7c42a-a615-478f-b737-a283dd141304}, !- Surface Name
  ,                                       !- Outside Boundary Condition Object
  ,                                       !- View Factor to Ground
  ,                                       !- Frame and Divider Name
  ,                                       !- Multiplier
  ,                                       !- Number of Vertices
  -0.70413002658147, 0.123702838626219, 5.11469056821242, !- X,Y,Z Vertex 1 {m}
  16.0435591771416, 21.7528561441648, 5.58456500288749, !- X,Y,Z Vertex 2 {m}
  -3.04155734350861, 18.6752077631482, 5.98158670830981; !- X,Y,Z Vertex 3 {m}

OS:Surface,
  {1f558bb2-05ae-4816-a5e1-506d40ef7784}, !- Handle
  surface_18_generic_window_frame,        !- Name
  Wall,                                   !- Surface Type